
  SciTegic10241817252D

 32 35  0  0  0  0            999 V2000
    5.3735   -5.9666    0.0000 C   0  0
    5.3724   -6.7939    0.0000 C   0  0
    6.0871   -7.2068    0.0000 C   0  0
    6.8036   -6.7934    0.0000 C   0  0
    6.8007   -5.9630    0.0000 C   0  0
    6.0853   -5.5538    0.0000 C   0  0
    7.5136   -5.5477    0.0000 C   0  0
    8.2296   -5.9575    0.0000 O   0  0
    8.9425   -5.5424    0.0000 C   0  0
    9.6570   -5.9556    0.0000 C   0  0
   10.3694   -5.5411    0.0000 C   0  0
   10.3667   -4.7152    0.0000 C   0  0
    9.6457   -4.3056    0.0000 C   0  0
    8.9362   -4.7224    0.0000 C   0  0
   11.0754   -4.2987    0.0000 C   0  0
   11.7923   -4.7093    0.0000 C   0  0
   12.5042   -4.2938    0.0000 C   0  0
   12.5004   -3.4680    0.0000 C   0  0
   11.7788   -3.0593    0.0000 C   0  0
   11.0699   -3.4771    0.0000 C   0  0
   13.2122   -3.0509    0.0000 C   0  0
   13.9293   -3.4588    0.0000 C   0  0
   14.0167   -4.2787    0.0000 S   0  0
   14.8248   -4.4451    0.0000 C   0  0
   15.2327   -3.7279    0.0000 N   0  0
   14.6766   -3.1186    0.0000 C   0  0
   15.1652   -5.1966    0.0000 S   0  0
   14.8422   -2.3103    0.0000 O   0  0
   16.0540   -3.7249    0.0000 C   0  0
   16.4691   -4.4380    0.0000 C   0  0
   17.2941   -4.4349    0.0000 O   0  0
   16.0592   -5.1538    0.0000 O   0  0
  1  2  2  0
  2  3  1  0
  3  4  2  0
  4  5  1  0
  5  6  2  0
  6  1  1  0
  5  7  1  0
  7  8  1  0
  8  9  1  0
  9 10  2  0
 10 11  1  0
 11 12  2  0
 12 13  1  0
 13 14  2  0
 14  9  1  0
 15 16  2  0
 16 17  1  0
 17 18  2  0
 18 19  1  0
 19 20  2  0
 20 15  1  0
 12 15  1  0
 18 21  1  0
 21 22  2  0
 22 23  1  0
 23 24  1  0
 24 25  1  0
 25 26  1  0
 26 22  1  0
 24 27  2  0
 26 28  2  0
 25 29  1  0
 29 30  1  0
 30 31  1  0
 30 32  2  0
M  END
> <From>
www.bindingDB.org

> <BindingDB Reactant_set_id>
50982951

> <Ligand InChI>
InChI=1S/C25H19NO4S2/c27-23(28)15-26-24(29)22(32-25(26)31)14-17-6-8-19(9-7-17)20-10-12-21(13-11-20)30-16-18-4-2-1-3-5-18/h1-14H,15-16H2,(H,27,28)/b22-14-

> <Ligand InChI Key>
VSARVBFJQHLSGH-HMAPJEAMSA-N

> <BindingDB MonomerID>
50403049

> <BindingDB Ligand Name>
CHEMBL2216806

> <Target Name Assigned by Curator or DataSource>
Protein-tyrosine phosphatase 1B (PTP1B)

> <Target Source Organism According to Curator or DataSource>
Homo sapiens

> <IC50 (nM)>
0.48

> <Curation/DataSource>
ChEMBL

> <Article DOI>
10.1016/j.bmc.2012.03.069

> <PMID>
22546204

> <Authors>
Jain, AK; Vaidya, A; Ravichandran, V; Kashaw, SK; Agrawal, RK

> <Institution>
Dr. Hari Singh Gour University

> <Link to Ligand in BindingDB>
http://www.bindingdb.org/bind/chemsearch/marvin/MolStructure.jsp?monomerid=50403049

> <Link to Ligand-Target Pair in BindingDB>
http://www.bindingdb.org/jsp/dbsearch/PrimarySearch_ki.jsp?energyterm=kJ/mole&tag=r21&monomerid=50403049&enzyme=Protein-tyrosine+phosphatase+1B+%28PTP1B%29&column=ki&startPg=0&Increment=50&submit=Search

> <PubChem CID>
46913133

> <PubChem SID>
163352073

> <ChEMBL ID of Ligand>
CHEMBL2216806

> <ZINC ID of Ligand>
ZINC95564535

> <Number of Protein Chains in Target (>
1

> <BindingDB Target Chain Sequence>
MEMEKEFEQIDKSGSWAAIYQDIRHEASDFPCRVAKLPKNKNRNRYRDVSPFDHSRIKLHQEDNDYINASLIKMEEAQRSYILTQGPLPNTCGHFWEMVWEQKSRGVVMLNRVMEKGSLKCAQYWPQKEEKEMIFEDTNLKLTLISEDIKSYYTVRQLELENLTTQETREILHFHYTTWPDFGVPESPASFLNFLFKVRESGSLSPEHGPVVVHCSAGIGRSGTFCLADTCLLLMDKRKDPSSVDIKKVLLEMRKFRMGLIQTADQLRFSYLAVIEGAKFIMGDSSVQDQWKELSHEDLEPPPEHIPPPPRPPKRILEPHNGKCREFFPNHQWVKEETQEDKDCPIKEEKGSPLNAAPYGIESMSQDTEVRSRVVGGSLRGAQAASPAKGEPSLPEKDEDHALSYWKPFLVNMCVATVLTAGAYLCYRFLFNSNT

> <PDB ID(s) of Target Chain>
1BZJ,1G7G,1GFY,1JF7,1KAK,1KAV,1LQF,1NL9,1NNY,1NO6,1NZ7,1OEM,1OEO,1OES,1OET,1OEU,1OEV,1ONY,1ONZ,1PH0,1PXH,1PYN,1Q1M,1Q6J,1Q6M,1Q6N,1Q6P,1Q6S,1Q6T,1QXK,1SUG,1T48,1T49,1T4J,1WAX,1XBO,2AZR,2B07,2BGD,2BGE,2CM2,2CM3,2CM7,2CM8,2CMA,2CMB,2CMC,2CNE,2CNF,2CNG,2CNH,2CNI,2F6T,2F6V,2F6W,2F6Y,2F6Z,2F70,2F71,2FJN,2H4G,2H4K,2HB1,2HNP,2HNQ,2QBP,2QBQ,2QBR,2QBS,2VEU,2VEV,2VEW,2VEX,2VEY,2ZMM,2ZN7,3A5J,3CWE,3D9C,3EAX,3EB1,3EU0,3I7Z,3I80,3SME,4BJO,4I8N,4QBW,4Y14

> <UniProt (SwissProt) Recommended Name of Target Chain>
Tyrosine-protein phosphatase non-receptor type 1

> <UniProt (SwissProt) Entry Name of Target Chain>
PTN1_HUMAN

> <UniProt (SwissProt) Primary ID of Target Chain>
P18031

> <UniProt (SwissProt) Secondary ID(s) of Target Chain>
Q5TGD8,Q9BQV9,Q9NQQ4

$$$$

  SciTegic10241817252D

 54 56  0  0  0  0            999 V2000
    7.4833   -0.8417    0.0000 C   0  0
    7.4833   -1.6667    0.0000 C   0  0
    8.1954   -2.0750    0.0000 C   0  0  2  0  0  0
    8.9074   -1.6667    0.0000 C   0  0  1  0  0  0
    8.9074   -0.8417    0.0000 O   0  0
    8.1954   -0.4250    0.0000 C   0  0  2  0  0  0
    9.6212   -2.0802    0.0000 C   0  0
   10.3363   -1.6687    0.0000 C   0  0
   11.0502   -2.0823    0.0000 C   0  0  1  0  0  0
   11.7653   -1.6708    0.0000 C   0  0
   12.4791   -2.0844    0.0000 O   0  0
   11.7664   -0.8458    0.0000 C   0  0
   -2.5292    0.9583    0.0000 C   0  0  1  0  0  0
   -3.2458    1.3708    0.0000 C   0  0
   -3.3338    2.1976    0.0000 C   0  0
   -4.1429    2.3685    0.0000 O   0  0
   -4.5554    1.6517    0.0000 C   0  0
   -4.0012    1.0381    0.0000 C   0  0
   -2.7215    2.7505    0.0000 O   0  0
   -5.3758    1.5643    0.0000 O   0  0
   -4.1738    0.2313    0.0000 C   0  0
   -1.8152    1.3718    0.0000 C   0  0
   -1.1002    0.9602    0.0000 C   0  0
   -0.3863    1.3737    0.0000 O   0  0
    0.3287    0.9621    0.0000 C   0  0  1  0  0  0
    1.0426    1.3756    0.0000 C   0  0  1  0  0  0
    1.7577    0.9640    0.0000 C   0  0  1  0  0  0
    2.4716    1.3775    0.0000 C   0  0
    3.1866    0.9659    0.0000 C   0  0
    3.9005    1.3794    0.0000 C   0  0  2  0  0  0
    3.1877    0.1409    0.0000 O   0  0
    0.3298    0.1371    0.0000 C   0  0
   -0.3841   -0.2763    0.0000 C   0  0
    1.0448   -0.2744    0.0000 C   0  0
   -1.0991    0.1352    0.0000 O   0  0
    4.6155    0.9678    0.0000 C   0  0  2  0  0  0
    5.3295    1.3813    0.0000 C   0  0
    6.0445    0.9697    0.0000 C   0  0
    6.7584    1.3832    0.0000 C   0  0  2  0  0  0
    7.4734    0.9716    0.0000 C   0  0  1  0  0  0
    8.1873    1.3851    0.0000 C   0  0  2  0  0  0
    8.9024    0.9735    0.0000 C   0  0
    8.8958    0.1500    0.0000 C   0  0
    7.4674    0.1603    0.0000 O   0  0
    8.1862    2.2101    0.0000 C   0  0
    6.7573    2.2082    0.0000 C   0  0
    3.8994    2.2044    0.0000 C   0  0
   -2.5281    0.1333    0.0000 O   0  0
    1.0415    2.2006    0.0000 O   0  0
    4.6166    0.1428    0.0000 O   0  0
    8.1954   -2.9000    0.0000 C   0  0
   11.0490   -2.9073    0.0000 C   0  0
    1.7588    0.1390    0.0000 O   0  0
    0.3265    2.6121    0.0000 C   0  0
 13 14  1  0
 27 28  1  0
 14 15  1  0
 28 29  1  0
  4  7  1  1
 30 29  1  0
  1  2  1  0
 29 31  2  0
  7  8  1  0
 25 32  1  0
  6  1  1  0
 32 33  1  0
 15 16  1  0
 32 34  1  0
 16 17  1  0
 23 35  2  0
 17 18  1  0
 30 36  1  0
 18 14  2  0
 36 37  1  0
  9  8  1  0
 37 38  1  0
 15 19  2  0
 39 38  1  0
  3  2  1  0
 40 39  1  1
 17 20  2  0
 40 41  1  0
  9 10  1  0
 41 42  1  0
 40 44  1  0
 18 21  1  0
 42 43  1  0
  3  4  1  0
  6 43  1  0
  6 44  1  6
 13 22  1  0
 10 11  2  0
 41 45  1  1
 22 23  1  0
 39 46  1  1
  4  5  1  0
 30 47  1  1
 23 24  1  0
 13 48  1  1
 10 12  1  0
 26 49  1  6
 25 24  1  1
 36 50  1  6
  6  5  1  0
  3 51  1  6
 26 25  1  0
  9 52  1  1
 27 53  1  1
 26 27  1  0
 49 54  1  0
M  END
> <From>
www.bindingDB.org

> <BindingDB Reactant_set_id>
50782663

> <Ligand InChI>
InChI=1S/C41H66O13/c1-21(2)36(51-34(47)20-31(45)35-27(8)39(48)52-40(35)49)38(50-10)32(46)19-30(44)26(7)29(43)13-11-24(5)37-25(6)16-18-41(54-37)17-15-23(4)33(53-41)14-12-22(3)28(9)42/h21-26,29,31-33,36-38,43,45-46H,11-20H2,1-10H3/t22-,23+,24+,25-,26-,29-,31+,32+,33-,36+,37-,38+,41+/m0/s1

> <Ligand InChI Key>
RFCWHQNNCOJYTR-IRCAEPKSSA-N

> <BindingDB MonomerID>
50366883

> <BindingDB Ligand Name>
TAUTOMYCIN

> <Target Name Assigned by Curator or DataSource>
Protein-tyrosine phosphatase 1B (PTP1B)

> <Target Source Organism According to Curator or DataSource>
Homo sapiens

> <IC50 (nM)>
0.67

> <Curation/DataSource>
ChEMBL

> <Article DOI>
10.1021/jm960873x

> <PMID>
9379439

> <Authors>
Gupta, V; Ogawa, AK; Du, X; Houk, KN; Armstrong, RW

> <Institution>
University of California

> <Link to Ligand in BindingDB>
http://www.bindingdb.org/bind/chemsearch/marvin/MolStructure.jsp?monomerid=50366883

> <Link to Ligand-Target Pair in BindingDB>
http://www.bindingdb.org/jsp/dbsearch/PrimarySearch_ki.jsp?energyterm=kJ/mole&tag=r21&monomerid=50366883&enzyme=Protein-tyrosine+phosphatase+1B+%28PTP1B%29&column=ki&startPg=0&Increment=50&submit=Search

> <PubChem CID>
440646

> <PubChem SID>
160845985

> <KEGG ID of Ligand>
C05372

> <ZINC ID of Ligand>
ZINC95615663

> <Number of Protein Chains in Target (>
1

> <BindingDB Target Chain Sequence>
MEMEKEFEQIDKSGSWAAIYQDIRHEASDFPCRVAKLPKNKNRNRYRDVSPFDHSRIKLHQEDNDYINASLIKMEEAQRSYILTQGPLPNTCGHFWEMVWEQKSRGVVMLNRVMEKGSLKCAQYWPQKEEKEMIFEDTNLKLTLISEDIKSYYTVRQLELENLTTQETREILHFHYTTWPDFGVPESPASFLNFLFKVRESGSLSPEHGPVVVHCSAGIGRSGTFCLADTCLLLMDKRKDPSSVDIKKVLLEMRKFRMGLIQTADQLRFSYLAVIEGAKFIMGDSSVQDQWKELSHEDLEPPPEHIPPPPRPPKRILEPHNGKCREFFPNHQWVKEETQEDKDCPIKEEKGSPLNAAPYGIESMSQDTEVRSRVVGGSLRGAQAASPAKGEPSLPEKDEDHALSYWKPFLVNMCVATVLTAGAYLCYRFLFNSNT

> <PDB ID(s) of Target Chain>
1BZJ,1G7G,1GFY,1JF7,1KAK,1KAV,1LQF,1NL9,1NNY,1NO6,1NZ7,1OEM,1OEO,1OES,1OET,1OEU,1OEV,1ONY,1ONZ,1PH0,1PXH,1PYN,1Q1M,1Q6J,1Q6M,1Q6N,1Q6P,1Q6S,1Q6T,1QXK,1SUG,1T48,1T49,1T4J,1WAX,1XBO,2AZR,2B07,2BGD,2BGE,2CM2,2CM3,2CM7,2CM8,2CMA,2CMB,2CMC,2CNE,2CNF,2CNG,2CNH,2CNI,2F6T,2F6V,2F6W,2F6Y,2F6Z,2F70,2F71,2FJN,2H4G,2H4K,2HB1,2HNP,2HNQ,2QBP,2QBQ,2QBR,2QBS,2VEU,2VEV,2VEW,2VEX,2VEY,2ZMM,2ZN7,3A5J,3CWE,3D9C,3EAX,3EB1,3EU0,3I7Z,3I80,3SME,4BJO,4I8N,4QBW,4Y14

> <UniProt (SwissProt) Recommended Name of Target Chain>
Tyrosine-protein phosphatase non-receptor type 1

> <UniProt (SwissProt) Entry Name of Target Chain>
PTN1_HUMAN

> <UniProt (SwissProt) Primary ID of Target Chain>
P18031

> <UniProt (SwissProt) Secondary ID(s) of Target Chain>
Q5TGD8,Q9BQV9,Q9NQQ4

$$$$

  SciTegic10241817252D

 26 27  0  0  0  0            999 V2000
    0.7144   -0.4125    0.0000 C   0  0
    0.7144    0.4125    0.0000 C   0  0
    0.0000    0.8250    0.0000 C   0  0
   -0.7144    0.4125    0.0000 C   0  0
   -0.7144   -0.4125    0.0000 C   0  0
    0.0000   -0.8250    0.0000 C   0  0
    0.0000    1.4850    0.0000 O   0  0
    1.4285   -0.8267    0.0000 O   0  0
    1.4276   -1.4867    0.0000 C   0  0
    1.4285    0.8267    0.0000 C   0  0
    1.4273    1.6521    0.0000 C   0  0
    2.1413    2.0663    0.0000 C   0  0
    0.8551    1.9812    0.0000 O   0  0
    2.7135    1.7373    0.0000 C   0  0
    2.1404    2.7264    0.0000 C   0  0
   -1.4302    0.8237    0.0000 C   0  0
   -1.4313    1.4837    0.0000 O   0  0
   -2.1444    0.4100    0.0000 C   0  0
   -2.8602    0.8213    0.0000 C   0  0
   -3.5744    0.4075    0.0000 C   0  0
   -4.2904    0.8175    0.0000 C   0  0
   -5.0034    0.4025    0.0000 C   0  0
   -5.0005   -0.4225    0.0000 C   0  0
   -4.2847   -0.8325    0.0000 C   0  0
   -3.5716   -0.4175    0.0000 C   0  0
   -5.5710   -0.7544    0.0000 O   0  0
  1  2  2  0
  2  3  1  0
  3  4  2  0
  4  5  1  0
  5  6  2  0
  6  1  1  0
  3  7  1  0
  1  8  1  0
  8  9  1  0
  2 10  1  0
 10 11  1  0
 11 12  1  0
 11 13  2  0
 12 14  1  0
 12 15  2  0
  4 16  1  0
 16 17  2  0
 16 18  1  0
 18 19  2  0
 19 20  1  0
 20 21  2  0
 21 22  1  0
 22 23  2  0
 23 24  1  0
 24 25  2  0
 25 20  1  0
 23 26  1  0
M  END
> <From>
www.bindingDB.org

> <BindingDB Reactant_set_id>
50308830

> <Ligand InChI>
InChI=1S/C21H20O5/c1-13(2)19(24)12-17-20(26-3)11-9-16(21(17)25)18(23)10-6-14-4-7-15(22)8-5-14/h4-11,22,25H,1,12H2,2-3H3/b10-6+

> <Ligand InChI Key>
MYWUHPGPXHNDRC-UXBLZVDNSA-N

> <BindingDB MonomerID>
50069688

> <BindingDB Ligand Name>
CHEMBL3402548

> <Target Name Assigned by Curator or DataSource>
Protein-tyrosine phosphatase 1B

> <Target Source Organism According to Curator or DataSource>
Homo sapiens

> <IC50 (nM)>
0.82

> <Curation/DataSource>
ChEMBL

> <Article DOI>
10.1016/j.bmcl.2015.04.003

> <PMID>
25891102

> <Authors>
Li, JL; Gao, LX; Meng, FW; Tang, CL; Zhang, RJ; Li, JY; Luo, C; Li, J; Zhao, WM

> <Institution>
Chinese Academy of Sciences

> <Link to Ligand in BindingDB>
http://www.bindingdb.org/bind/chemsearch/marvin/MolStructure.jsp?monomerid=50069688

> <Link to Ligand-Target Pair in BindingDB>
http://www.bindingdb.org/jsp/dbsearch/PrimarySearch_ki.jsp?energyterm=kJ/mole&tag=r21&monomerid=50069688&enzyme=Protein-tyrosine+phosphatase+1B&column=ki&startPg=0&Increment=50&submit=Search

> <PubChem CID>
118729165

> <PubChem SID>
103963724

> <ChEMBL ID of Ligand>
CHEMBL553300

> <ZINC ID of Ligand>
ZINC27752096

> <Number of Protein Chains in Target (>
1

> <BindingDB Target Chain Sequence>
MEMEKEFEQIDKSGSWAAIYQDIRHEASDFPCRVAKLPKNKNRNRYRDVSPFDHSRIKLHQEDNDYINASLIKMEEAQRSYILTQGPLPNTCGHFWEMVWEQKSRGVVMLNRVMEKGSLKCAQYWPQKEEKEMIFEDTNLKLTLISEDIKSYYTVRQLELENLTTQETREILHFHYTTWPDFGVPESPASFLNFLFKVRESGSLSPEHGPVVVHCSAGIGRSGTFCLADTCLLLMDKRKDPSSVDIKKVLLEMRKFRMGLIQTADQLRFSYLAVIEGAKFIMGDSSVQDQWKELSHEDLEPPPEHIPPPPRPPKRILEPHNGKCREFFPNHQWVKEETQEDKDCPIKEEKGSPLNAAPYGIESMSQDTEVRSRVVGGSLRGAQAASPAKGEPSLPEKDEDHALSYWKPFLVNMCVATVLTAGAYLCYRFLFNSNT

> <PDB ID(s) of Target Chain>
1BZJ,1G7G,1GFY,1JF7,1KAK,1KAV,1LQF,1NL9,1NNY,1NO6,1NZ7,1OEM,1OEO,1OES,1OET,1OEU,1OEV,1ONY,1ONZ,1PH0,1PXH,1PYN,1Q1M,1Q6J,1Q6M,1Q6N,1Q6P,1Q6S,1Q6T,1QXK,1SUG,1T48,1T49,1T4J,1WAX,1XBO,2AZR,2B07,2BGD,2BGE,2CM2,2CM3,2CM7,2CM8,2CMA,2CMB,2CMC,2CNE,2CNF,2CNG,2CNH,2CNI,2F6T,2F6V,2F6W,2F6Y,2F6Z,2F70,2F71,2FJN,2H4G,2H4K,2HB1,2HNP,2HNQ,2QBP,2QBQ,2QBR,2QBS,2VEU,2VEV,2VEW,2VEX,2VEY,2ZMM,2ZN7,3A5J,3CWE,3D9C,3EAX,3EB1,3EU0,3I7Z,3I80,3SME,4BJO,4I8N,4QBW,4Y14,5K9V,5K9W,5KA0,5KA1,5T19,6B90

> <UniProt (SwissProt) Recommended Name of Target Chain>
Tyrosine-protein phosphatase non-receptor type 1

> <UniProt (SwissProt) Entry Name of Target Chain>
PTN1_HUMAN

> <UniProt (SwissProt) Primary ID of Target Chain>
P18031

> <UniProt (SwissProt) Secondary ID(s) of Target Chain>
Q5TGD8,Q9BQV9,Q9NQQ4

$$$$

  SciTegic10241817252D

 33 36  0  0  0  0            999 V2000
   -0.8014  -25.7954    0.0000 O   0  0
   -0.0839  -26.2053    0.0000 C   0  0
   -0.0837  -27.0281    0.0000 C   0  0
    0.6323  -27.4379    0.0000 C   0  0
    1.3463  -27.0226    0.0000 C   0  0
    1.3406  -26.1931    0.0000 C   0  0
    0.6247  -25.7870    0.0000 C   0  0
    2.0588  -27.4319    0.0000 C   0  0
    2.1492  -28.2520    0.0000 S   0  0
    2.9573  -28.4194    0.0000 C   0  0
    3.3662  -27.7027    0.0000 N   0  0
    2.8108  -27.0924    0.0000 N   0  0
    3.2968  -29.1716    0.0000 N   0  0
    4.1178  -29.2537    0.0000 C   0  0
    4.4573  -30.0058    0.0000 C   0  0
    4.5995  -28.5836    0.0000 O   0  0
    3.9729  -30.6713    0.0000 C   0  0
    4.3117  -31.4229    0.0000 C   0  0
    5.1337  -31.5055    0.0000 C   0  0
    5.6156  -30.8305    0.0000 C   0  0
    5.2741  -30.0815    0.0000 C   0  0
   -0.8066  -24.9702    0.0000 C   0  0
   -0.0879  -24.5597    0.0000 C   0  0
   -0.0934  -23.7353    0.0000 C   0  0
   -0.8104  -23.3245    0.0000 C   0  0
   -1.5285  -23.7443    0.0000 C   0  0
   -1.5182  -24.5674    0.0000 C   0  0
   -0.8202  -22.5000    0.0000 N   0  3
   -1.5295  -22.0898    0.0000 O   0  0
   -0.1026  -22.0800    0.0000 O   0  5
    6.4407  -30.9093    0.0000 N   0  3
    6.9200  -30.2375    0.0000 O   0  0
    6.7828  -31.6602    0.0000 O   0  5
  1  2  1  0
  2  3  2  0
  3  4  1  0
  4  5  2  0
  5  6  1  0
  6  7  2  0
  7  2  1  0
  8  9  1  0
  9 10  1  0
 10 11  2  0
 11 12  1  0
 12  8  2  0
  5  8  1  0
 10 13  1  0
 13 14  1  0
 14 15  1  0
 14 16  2  0
 15 17  2  0
 17 18  1  0
 18 19  2  0
 19 20  1  0
 20 21  2  0
 21 15  1  0
  1 22  1  0
 22 23  2  0
 23 24  1  0
 24 25  2  0
 25 26  1  0
 26 27  2  0
 27 22  1  0
 28 29  2  0
 28 30  1  0
 25 28  1  0
 31 32  2  0
 31 33  1  0
 20 31  1  0
M  CHG  4  28   1  30  -1  31   1  33  -1
M  END
> <From>
www.bindingDB.org

> <BindingDB Reactant_set_id>
50289256

> <Ligand InChI>
InChI=1S/C21H13N5O6S/c27-19(14-2-1-3-16(12-14)26(30)31)22-21-24-23-20(33-21)13-4-8-17(9-5-13)32-18-10-6-15(7-11-18)25(28)29/h1-12H,(H,22,24,27)

> <Ligand InChI Key>
SOAIOWIFTJNXDY-UHFFFAOYSA-N

> <BindingDB MonomerID>
50057710

> <BindingDB Ligand Name>
CHEMBL3322839

> <Target Name Assigned by Curator or DataSource>
Protein-tyrosine phosphatase 1B

> <Target Source Organism According to Curator or DataSource>
Homo sapiens

> <IC50 (nM)>
0.85

> <Curation/DataSource>
ChEMBL

> <Article DOI>
10.1016/j.bmcl.2014.07.055

> <PMID>
25124112

> <Authors>
Li, Y; Yu, Y; Jin, K; Gao, L; Luo, T; Sheng, L; Shao, X; Li, J

> <Institution>
Liaoning Normal University

> <Link to Ligand in BindingDB>
http://www.bindingdb.org/bind/chemsearch/marvin/MolStructure.jsp?monomerid=50057710

> <Link to Ligand-Target Pair in BindingDB>
http://www.bindingdb.org/jsp/dbsearch/PrimarySearch_ki.jsp?energyterm=kJ/mole&tag=r21&monomerid=50057710&enzyme=Protein-tyrosine+phosphatase+1B&column=ki&startPg=0&Increment=50&submit=Search

> <PubChem CID>
118710341

> <PubChem SID>
103953732

> <ZINC ID of Ligand>
ZINC43676760

> <Number of Protein Chains in Target (>
1

> <BindingDB Target Chain Sequence>
MEMEKEFEQIDKSGSWAAIYQDIRHEASDFPCRVAKLPKNKNRNRYRDVSPFDHSRIKLHQEDNDYINASLIKMEEAQRSYILTQGPLPNTCGHFWEMVWEQKSRGVVMLNRVMEKGSLKCAQYWPQKEEKEMIFEDTNLKLTLISEDIKSYYTVRQLELENLTTQETREILHFHYTTWPDFGVPESPASFLNFLFKVRESGSLSPEHGPVVVHCSAGIGRSGTFCLADTCLLLMDKRKDPSSVDIKKVLLEMRKFRMGLIQTADQLRFSYLAVIEGAKFIMGDSSVQDQWKELSHEDLEPPPEHIPPPPRPPKRILEPHNGKCREFFPNHQWVKEETQEDKDCPIKEEKGSPLNAAPYGIESMSQDTEVRSRVVGGSLRGAQAASPAKGEPSLPEKDEDHALSYWKPFLVNMCVATVLTAGAYLCYRFLFNSNT

> <PDB ID(s) of Target Chain>
1BZJ,1G7G,1GFY,1JF7,1KAK,1KAV,1LQF,1NL9,1NNY,1NO6,1NZ7,1OEM,1OEO,1OES,1OET,1OEU,1OEV,1ONY,1ONZ,1PH0,1PXH,1PYN,1Q1M,1Q6J,1Q6M,1Q6N,1Q6P,1Q6S,1Q6T,1QXK,1SUG,1T48,1T49,1T4J,1WAX,1XBO,2AZR,2B07,2BGD,2BGE,2CM2,2CM3,2CM7,2CM8,2CMA,2CMB,2CMC,2CNE,2CNF,2CNG,2CNH,2CNI,2F6T,2F6V,2F6W,2F6Y,2F6Z,2F70,2F71,2FJN,2H4G,2H4K,2HB1,2HNP,2HNQ,2QBP,2QBQ,2QBR,2QBS,2VEU,2VEV,2VEW,2VEX,2VEY,2ZMM,2ZN7,3A5J,3CWE,3D9C,3EAX,3EB1,3EU0,3I7Z,3I80,3SME,4BJO,4I8N,4QBW,4Y14,5K9V,5K9W,5KA0,5KA1,5T19,6B90

> <UniProt (SwissProt) Recommended Name of Target Chain>
Tyrosine-protein phosphatase non-receptor type 1

> <UniProt (SwissProt) Entry Name of Target Chain>
PTN1_HUMAN

> <UniProt (SwissProt) Primary ID of Target Chain>
P18031

> <UniProt (SwissProt) Secondary ID(s) of Target Chain>
Q5TGD8,Q9BQV9,Q9NQQ4

$$$$
 
  SciTegic10241817252D

 57 63  0  0  0  0            999 V2000
   13.4333  -13.2042    0.0000 C   0  0  2  0  0  0
   13.4333  -14.0336    0.0000 C   0  0
   14.1477  -14.4461    0.0000 C   0  0
   14.8668  -14.0336    0.0000 C   0  0
   14.8668  -13.2042    0.0000 C   0  0
   14.1477  -12.7871    0.0000 O   0  0
    6.2832  -12.3365    0.0000 C   0  0  1  0  0  0
    6.2832  -13.1661    0.0000 C   0  0
    6.9976  -13.5786    0.0000 C   0  0
    6.9976  -11.9194    0.0000 O   0  0
    0.6875  -11.7787    0.0000 C   0  0
    0.6875  -12.6083    0.0000 C   0  0  1  0  0  0
    1.4019  -13.0208    0.0000 O   0  0
    2.1209  -12.6083    0.0000 C   0  0  1  0  0  0
    2.1209  -11.7787    0.0000 C   0  0
    1.4019  -11.3617    0.0000 C   0  0
   -0.7471  -12.6083    0.0000 C   0  0  2  0  0  0
   -0.7471  -13.4379    0.0000 C   0  0
   -0.0326  -13.8504    0.0000 C   0  0
    0.6864  -13.4379    0.0000 C   0  0  1  0  0  0
   -0.0326  -12.1912    0.0000 O   0  0
   -1.4625  -12.1976    0.0000 C   0  0
   -2.1759  -12.6117    0.0000 C   0  0  1  0  0  0
    1.4000  -13.8518    0.0000 O   0  0
    1.4008  -10.5368    0.0000 C   0  0
    2.8348  -13.0218    0.0000 C   0  0  2  0  0  0
    2.8337  -13.8468    0.0000 C   0  0
    3.5498  -12.6103    0.0000 C   0  0
    4.2637  -13.0238    0.0000 C   0  0
    4.9788  -12.6123    0.0000 C   0  0  2  0  0  0
    5.7304  -12.9489    0.0000 O   0  0
    5.8717  -11.6214    0.0000 C   0  0
    5.0646  -11.7920    0.0000 C   0  0
    7.7167  -12.3365    0.0000 C   0  0  2  0  0  0
    7.7135  -13.1674    0.0000 C   0  0  2  0  0  0
    8.4275  -13.5834    0.0000 O   0  0
    9.1494  -13.1730    0.0000 C   0  0  1  0  0  0
    9.1526  -12.3420    0.0000 C   0  0
    8.4340  -11.9215    0.0000 C   0  0  1  0  0  0
    8.4359  -11.0965    0.0000 O   0  0
    9.8690  -11.9330    0.0000 C   0  0
    9.8616  -13.5892    0.0000 C   0  0  1  0  0  0
    9.8573  -14.4141    0.0000 O   0  0
   10.5782  -13.1804    0.0000 C   0  0
   11.2905  -13.5966    0.0000 C   0  0  1  0  0  0
   12.0071  -13.1879    0.0000 C   0  0  1  0  0  0
   11.2862  -14.4216    0.0000 C   0  0
   12.7194  -13.6108    0.0000 O   0  0
   13.4424  -12.3803    0.0000 C   0  0
   12.7303  -11.9619    0.0000 C   0  0
   12.0096  -12.3687    0.0000 C   0  0  1  0  0  0
   11.2978  -11.9516    0.0000 C   0  0
   -2.8920  -13.0162    0.0000 C   0  0
   -1.7660  -13.3276    0.0000 C   0  0
   -2.5882  -11.8972    0.0000 O   0  0
   -3.6003  -12.6009    0.0000 O   0  0
   -2.8997  -13.8412    0.0000 O   0  0
 12 13  1  6
 14 13  1  0
 14 15  1  0
  7 31  1  6
  7 32  1  0
 32 33  1  0
 30 33  1  0
 34 35  1  0
 15 16  1  0
 17 18  1  0
  1  6  1  1
  2  3  1  0
  7 10  1  0
  8  9  1  0
 34 39  1  0
 35 36  1  6
 37 36  1  0
 37 38  1  0
 39 38  1  0
 35  9  1  0
 17 21  1  0
 18 19  1  0
 39 40  1  6
 20 19  1  0
 38 41  2  0
 12 20  1  0
 37 42  1  1
 12 21  1  0
 42 43  1  6
 34 10  1  1
 42 44  1  0
 17 22  1  1
 45 44  1  0
 12 11  1  0
 46 45  1  6
 23 22  1  6
 45 47  1  1
 46 48  1  0
  3  4  1  0
 20 24  1  6
  4  5  1  0
 16 25  1  0
 46 51  1  0
  1 48  1  0
  1 49  1  0
 49 50  1  0
 51 50  1  0
  5  6  1  0
 51 52  1  6
 14 26  1  1
  7  8  1  0
 26 27  1  1
 23 53  1  0
 26 28  1  0
 23 54  1  0
  1  2  1  0
 23 55  1  1
 28 29  2  0
 11 16  2  0
 53 56  1  0
 53 57  2  0
 30 29  1  1
 30 31  1  0
M  END
> <Name>
 

> <From>
www.bindingDB.org

> <BindingDB Reactant_set_id>
50782658

> <Ligand InChI>
InChI=1S/C44H68O13/c1-25-21-34(55-44(23-25)35(46)12-11-31(54-44)24-41(6,50)40(48)49)26(2)9-10-30-14-18-43(53-30)19-15-33-39(57-43)36(47)29(5)38(52-33)32(45)22-28(4)37-27(3)13-17-42(56-37)16-7-8-20-51-42/h9-10,23,26-28,30-39,45-47,50H,5,7-8,11-22,24H2,1-4,6H3,(H,48,49)/b10-9+/t26-,27-,28+,30+,31+,32+,33-,34+,35-,36-,37+,38+,39-,41-,42+,43-,44-/m1/s1

> <Ligand InChI Key>
QNDVLZJODHBUFM-WFXQOWMNSA-N

> <BindingDB MonomerID>
50110676

> <BindingDB Ligand Name>
CHEMBL280487::okadaic acid

> <Target Name Assigned by Curator or DataSource>
Protein-tyrosine phosphatase 1B (PTP1B)

> <Target Source Organism According to Curator or DataSource>
Homo sapiens

> <IC50 (nM)>
1.2

> <Curation/DataSource>
ChEMBL

> <Article DOI>
10.1021/jm960873x

> <PMID>
9379439

> <Authors>
Gupta, V; Ogawa, AK; Du, X; Houk, KN; Armstrong, RW

> <Institution>
University of California

> <Link to Ligand in BindingDB>
http://www.bindingdb.org/bind/chemsearch/marvin/MolStructure.jsp?monomerid=50110676

> <Link to Ligand-Target Pair in BindingDB>
http://www.bindingdb.org/jsp/dbsearch/PrimarySearch_ki.jsp?energyterm=kJ/mole&tag=r21&monomerid=50110676&enzyme=Protein-tyrosine+phosphatase+1B+%28PTP1B%29&column=ki&startPg=0&Increment=50&submit=Search

> <Ligand HET ID in PDB>
OKA

> <PDB ID(s) for Ligand-Target Complex>
1JK7,1U32,2IE4,4WRI

> <PubChem CID>
446512

> <PubChem SID>
104005410

> <ChEBI ID of Ligand>
44658

> <ChEMBL ID of Ligand>
CHEMBL280487

> <IUPHAR_GRAC ID of Ligand>
5349

> <ZINC ID of Ligand>
ZINC85601542

> <Number of Protein Chains in Target (>
1

> <BindingDB Target Chain Sequence>
MEMEKEFEQIDKSGSWAAIYQDIRHEASDFPCRVAKLPKNKNRNRYRDVSPFDHSRIKLHQEDNDYINASLIKMEEAQRSYILTQGPLPNTCGHFWEMVWEQKSRGVVMLNRVMEKGSLKCAQYWPQKEEKEMIFEDTNLKLTLISEDIKSYYTVRQLELENLTTQETREILHFHYTTWPDFGVPESPASFLNFLFKVRESGSLSPEHGPVVVHCSAGIGRSGTFCLADTCLLLMDKRKDPSSVDIKKVLLEMRKFRMGLIQTADQLRFSYLAVIEGAKFIMGDSSVQDQWKELSHEDLEPPPEHIPPPPRPPKRILEPHNGKCREFFPNHQWVKEETQEDKDCPIKEEKGSPLNAAPYGIESMSQDTEVRSRVVGGSLRGAQAASPAKGEPSLPEKDEDHALSYWKPFLVNMCVATVLTAGAYLCYRFLFNSNT

> <PDB ID(s) of Target Chain>
1BZJ,1G7G,1GFY,1JF7,1KAK,1KAV,1LQF,1NL9,1NNY,1NO6,1NZ7,1OEM,1OEO,1OES,1OET,1OEU,1OEV,1ONY,1ONZ,1PH0,1PXH,1PYN,1Q1M,1Q6J,1Q6M,1Q6N,1Q6P,1Q6S,1Q6T,1QXK,1SUG,1T48,1T49,1T4J,1WAX,1XBO,2AZR,2B07,2BGD,2BGE,2CM2,2CM3,2CM7,2CM8,2CMA,2CMB,2CMC,2CNE,2CNF,2CNG,2CNH,2CNI,2F6T,2F6V,2F6W,2F6Y,2F6Z,2F70,2F71,2FJN,2H4G,2H4K,2HB1,2HNP,2HNQ,2QBP,2QBQ,2QBR,2QBS,2VEU,2VEV,2VEW,2VEX,2VEY,2ZMM,2ZN7,3A5J,3CWE,3D9C,3EAX,3EB1,3EU0,3I7Z,3I80,3SME,4BJO,4I8N,4QBW,4Y14

> <UniProt (SwissProt) Recommended Name of Target Chain>
Tyrosine-protein phosphatase non-receptor type 1

> <UniProt (SwissProt) Entry Name of Target Chain>
PTN1_HUMAN

> <UniProt (SwissProt) Primary ID of Target Chain>
P18031

> <UniProt (SwissProt) Secondary ID(s) of Target Chain>
Q5TGD8,Q9BQV9,Q9NQQ4

$$$$

  SciTegic10241817252D

 33 37  0  0  0  0            999 V2000
    6.9454  -15.2677    0.0000 C   0  0
    6.9454  -16.0937    0.0000 C   0  0  1  0  0  0
    7.6547  -16.5009    0.0000 C   0  0
    7.6547  -14.8489    0.0000 C   0  0
    8.3678  -15.2677    0.0000 C   0  0  1  0  0  0
    8.3643  -16.0937    0.0000 C   0  0  1  0  0  0
    9.0745  -16.5055    0.0000 C   0  0
    9.7928  -16.0997    0.0000 C   0  0
    9.0815  -14.8534    0.0000 C   0  0  2  0  0  0
    9.7938  -15.2728    0.0000 C   0  0  2  0  0  0
    9.8034  -13.6254    0.0000 C   0  0
    9.0832  -14.0305    0.0000 C   0  0
   10.5157  -14.0409    0.0000 C   0  0
   10.5051  -14.8641    0.0000 C   0  0  1  0  0  0
   11.2095  -15.2844    0.0000 C   0  0
   11.9287  -14.8823    0.0000 C   0  0
   11.2304  -13.6380    0.0000 C   0  0  1  0  0  0
   11.9402  -14.0633    0.0000 C   0  0  2  0  0  0
   12.6575  -13.6670    0.0000 C   0  0
   12.6791  -12.8397    0.0000 C   0  0
   11.9694  -12.4105    0.0000 C   0  0
   11.2418  -12.8123    0.0000 C   0  0
    7.2363  -17.2144    0.0000 C   0  0
    7.8646  -17.2958    0.0000 C   0  0
    8.3609  -14.4417    0.0000 C   0  0
    9.7881  -14.4455    0.0000 C   0  0
   10.4978  -15.6865    0.0000 C   0  0
   11.5487  -11.6921    0.0000 C   0  0
   12.3746  -11.6921    0.0000 C   0  0
   12.6461  -14.4766    0.0000 C   0  0
   12.6446  -15.3026    0.0000 O   0  0
   13.3628  -14.0629    0.0000 O   0  0
    6.2302  -16.5056    0.0000 O   0  0
 17 22  1  6
 18 19  1  0
 19 20  1  0
 20 21  1  0
 21 22  1  0
  6  3  1  0
  3 23  1  0
  5  4  1  0
  3 24  1  0
  5  6  1  0
  9 12  1  1
  5 25  1  1
 10 14  1  0
 10 26  1  1
 13 11  2  0
 11 12  1  0
 14 13  1  0
 14 27  1  6
 21 28  1  0
  2  1  1  0
 21 29  1  0
 18 30  1  1
  1  4  1  0
 30 31  2  0
 17 13  1  0
 30 32  1  0
 14 15  1  0
  2 33  1  1
 15 16  1  0
 18 16  1  0
 17 18  1  0
  5  9  1  0
  6  7  1  1
  7  8  1  0
 10  8  1  0
  9 10  1  0
  2  3  1  0
M  END
> <From>
www.bindingDB.org

> <BindingDB Reactant_set_id>
50308828

> <Ligand InChI>
InChI=1S/C30H48O3/c1-25(2)14-16-30(24(32)33)17-15-28(6)19(20(30)18-25)8-9-22-27(5)12-11-23(31)26(3,4)21(27)10-13-29(22,28)7/h8,20-23,31H,9-18H2,1-7H3,(H,32,33)/t20-,21-,22+,23-,27-,28+,29+,30-/m0/s1

> <Ligand InChI Key>
MIJYXULNPSFWEK-GTOFXWBISA-N

> <BindingDB MonomerID>
50346601

> <BindingDB Ligand Name>
NSC-114945::OLEANOLIC_ACID::Oleanolic acid::Oleanolic acid (OA)(Compound 1)

> <Target Name Assigned by Curator or DataSource>
Protein-tyrosine phosphatase 1B

> <Target Source Organism According to Curator or DataSource>
Homo sapiens

> <IC50 (nM)>
1.2

> <Curation/DataSource>
ChEMBL

> <Article DOI>
10.1016/j.bmcl.2015.04.003

> <PMID>
25891102

> <Authors>
Li, JL; Gao, LX; Meng, FW; Tang, CL; Zhang, RJ; Li, JY; Luo, C; Li, J; Zhao, WM

> <Institution>
Chinese Academy of Sciences

> <Link to Ligand in BindingDB>
http://www.bindingdb.org/bind/chemsearch/marvin/MolStructure.jsp?monomerid=50346601

> <Link to Ligand-Target Pair in BindingDB>
http://www.bindingdb.org/jsp/dbsearch/PrimarySearch_ki.jsp?energyterm=kJ/mole&tag=r21&monomerid=50346601&enzyme=Protein-tyrosine+phosphatase+1B&column=ki&startPg=0&Increment=50&submit=Search

> <PubChem CID>
10494

> <PubChem SID>
136353287

> <ChEBI ID of Ligand>
37659

> <IUPHAR_GRAC ID of Ligand>
3306

> <KEGG ID of Ligand>
C17148

> <ZINC ID of Ligand>
ZINC38140516

> <Number of Protein Chains in Target (>
1

> <BindingDB Target Chain Sequence>
MEMEKEFEQIDKSGSWAAIYQDIRHEASDFPCRVAKLPKNKNRNRYRDVSPFDHSRIKLHQEDNDYINASLIKMEEAQRSYILTQGPLPNTCGHFWEMVWEQKSRGVVMLNRVMEKGSLKCAQYWPQKEEKEMIFEDTNLKLTLISEDIKSYYTVRQLELENLTTQETREILHFHYTTWPDFGVPESPASFLNFLFKVRESGSLSPEHGPVVVHCSAGIGRSGTFCLADTCLLLMDKRKDPSSVDIKKVLLEMRKFRMGLIQTADQLRFSYLAVIEGAKFIMGDSSVQDQWKELSHEDLEPPPEHIPPPPRPPKRILEPHNGKCREFFPNHQWVKEETQEDKDCPIKEEKGSPLNAAPYGIESMSQDTEVRSRVVGGSLRGAQAASPAKGEPSLPEKDEDHALSYWKPFLVNMCVATVLTAGAYLCYRFLFNSNT

> <PDB ID(s) of Target Chain>
1BZJ,1G7G,1GFY,1JF7,1KAK,1KAV,1LQF,1NL9,1NNY,1NO6,1NZ7,1OEM,1OEO,1OES,1OET,1OEU,1OEV,1ONY,1ONZ,1PH0,1PXH,1PYN,1Q1M,1Q6J,1Q6M,1Q6N,1Q6P,1Q6S,1Q6T,1QXK,1SUG,1T48,1T49,1T4J,1WAX,1XBO,2AZR,2B07,2BGD,2BGE,2CM2,2CM3,2CM7,2CM8,2CMA,2CMB,2CMC,2CNE,2CNF,2CNG,2CNH,2CNI,2F6T,2F6V,2F6W,2F6Y,2F6Z,2F70,2F71,2FJN,2H4G,2H4K,2HB1,2HNP,2HNQ,2QBP,2QBQ,2QBR,2QBS,2VEU,2VEV,2VEW,2VEX,2VEY,2ZMM,2ZN7,3A5J,3CWE,3D9C,3EAX,3EB1,3EU0,3I7Z,3I80,3SME,4BJO,4I8N,4QBW,4Y14,5K9V,5K9W,5KA0,5KA1,5T19,6B90

> <UniProt (SwissProt) Recommended Name of Target Chain>
Tyrosine-protein phosphatase non-receptor type 1

> <UniProt (SwissProt) Entry Name of Target Chain>
PTN1_HUMAN

> <UniProt (SwissProt) Primary ID of Target Chain>
P18031

> <UniProt (SwissProt) Secondary ID(s) of Target Chain>
Q5TGD8,Q9BQV9,Q9NQQ4

$$$$

  SciTegic10241817252D

 27 28  0  0  0  0            999 V2000
   -2.8763    1.8771    0.0000 O   0  0
   -0.0184    1.8771    0.0000 O   0  0
    0.6961    0.6396    0.0000 O   0  0
   -2.8763    2.7021    0.0000 O   0  0
   -3.5907    3.1146    0.0000 O   0  0
    0.6961   -4.3104    0.0000 O   0  0
   -1.4473    1.8771    0.0000 C   0  0
   -0.7328    1.4646    0.0000 C   0  0
   -0.7328    0.6396    0.0000 C   0  0
   -2.1618    1.4646    0.0000 C   0  0
   -0.0184    0.2271    0.0000 C   0  0
   -1.4473    0.2271    0.0000 C   0  0
   -1.4473    2.7021    0.0000 C   0  0
   -2.1618    0.6396    0.0000 C   0  0
   -2.1618    3.1146    0.0000 C   0  0
   -0.0184   -0.5979    0.0000 C   0  0
   -2.1618    3.9396    0.0000 C   0  0
    0.6961   -1.0104    0.0000 C   0  0
    0.6961   -1.8354    0.0000 C   0  0
   -3.5907    1.4646    0.0000 C   0  0
    1.4106   -2.2479    0.0000 C   0  0
   -0.0184   -2.2479    0.0000 C   0  0
    0.6961   -3.4854    0.0000 C   0  0
    1.4106   -3.0729    0.0000 C   0  0
   -0.0184   -3.0729    0.0000 C   0  0
   -1.4473    4.3521    0.0000 C   0  0
   -2.8763    4.3521    0.0000 C   0  0
  1 10  1  0
  1 20  1  0
  2  8  1  0
  3 11  2  0
  4  5  1  0
  4 15  1  0
  6 23  1  0
  7  8  2  0
  7 10  1  0
  7 13  1  0
  8  9  1  0
  9 11  1  0
  9 12  2  0
 10 14  2  0
 11 16  1  0
 12 14  1  0
 13 15  1  0
 15 17  1  0
 16 18  2  0
 17 26  2  0
 17 27  1  0
 18 19  1  0
 19 21  2  0
 19 22  1  0
 21 24  1  0
 22 25  2  0
 23 24  2  0
 23 25  1  0
M  END
> <From>
www.bindingDB.org

> <BindingDB Reactant_set_id>
50308821

> <Ligand InChI>
InChI=1/C21H22O6/c1-13(2)20(27-25)12-17-19(26-3)11-9-16(21(17)24)18(23)10-6-14-4-7-15(22)8-5-14/h4-11,20,22,24-25H,1,12H2,2-3H3/b10-6+

> <Ligand InChI Key>
AJERVVHSERWGFL-UXBLZVDNNA-N

> <BindingDB MonomerID>
50069683

> <BindingDB Ligand Name>
CHEMBL1718454

> <Target Name Assigned by Curator or DataSource>
Protein-tyrosine phosphatase 1B

> <Target Source Organism According to Curator or DataSource>
Homo sapiens

> <IC50 (nM)>
1.4

> <Curation/DataSource>
ChEMBL

> <Article DOI>
10.1016/j.bmcl.2015.04.003

> <PMID>
25891102

> <Authors>
Li, JL; Gao, LX; Meng, FW; Tang, CL; Zhang, RJ; Li, JY; Luo, C; Li, J; Zhao, WM

> <Institution>
Chinese Academy of Sciences

> <Link to Ligand in BindingDB>
http://www.bindingdb.org/bind/chemsearch/marvin/MolStructure.jsp?monomerid=50069683

> <Link to Ligand-Target Pair in BindingDB>
http://www.bindingdb.org/jsp/dbsearch/PrimarySearch_ki.jsp?energyterm=kJ/mole&tag=r21&monomerid=50069683&enzyme=Protein-tyrosine+phosphatase+1B&column=ki&startPg=0&Increment=50&submit=Search

> <PubChem CID>
10022050

> <PubChem SID>
103963719

> <ChEMBL ID of Ligand>
CHEMBL543706

> <ZINC ID of Ligand>
ZINC27755520

> <Number of Protein Chains in Target (>
1

> <BindingDB Target Chain Sequence>
MEMEKEFEQIDKSGSWAAIYQDIRHEASDFPCRVAKLPKNKNRNRYRDVSPFDHSRIKLHQEDNDYINASLIKMEEAQRSYILTQGPLPNTCGHFWEMVWEQKSRGVVMLNRVMEKGSLKCAQYWPQKEEKEMIFEDTNLKLTLISEDIKSYYTVRQLELENLTTQETREILHFHYTTWPDFGVPESPASFLNFLFKVRESGSLSPEHGPVVVHCSAGIGRSGTFCLADTCLLLMDKRKDPSSVDIKKVLLEMRKFRMGLIQTADQLRFSYLAVIEGAKFIMGDSSVQDQWKELSHEDLEPPPEHIPPPPRPPKRILEPHNGKCREFFPNHQWVKEETQEDKDCPIKEEKGSPLNAAPYGIESMSQDTEVRSRVVGGSLRGAQAASPAKGEPSLPEKDEDHALSYWKPFLVNMCVATVLTAGAYLCYRFLFNSNT

> <PDB ID(s) of Target Chain>
1BZJ,1G7G,1GFY,1JF7,1KAK,1KAV,1LQF,1NL9,1NNY,1NO6,1NZ7,1OEM,1OEO,1OES,1OET,1OEU,1OEV,1ONY,1ONZ,1PH0,1PXH,1PYN,1Q1M,1Q6J,1Q6M,1Q6N,1Q6P,1Q6S,1Q6T,1QXK,1SUG,1T48,1T49,1T4J,1WAX,1XBO,2AZR,2B07,2BGD,2BGE,2CM2,2CM3,2CM7,2CM8,2CMA,2CMB,2CMC,2CNE,2CNF,2CNG,2CNH,2CNI,2F6T,2F6V,2F6W,2F6Y,2F6Z,2F70,2F71,2FJN,2H4G,2H4K,2HB1,2HNP,2HNQ,2QBP,2QBQ,2QBR,2QBS,2VEU,2VEV,2VEW,2VEX,2VEY,2ZMM,2ZN7,3A5J,3CWE,3D9C,3EAX,3EB1,3EU0,3I7Z,3I80,3SME,4BJO,4I8N,4QBW,4Y14,5K9V,5K9W,5KA0,5KA1,5T19,6B90

> <UniProt (SwissProt) Recommended Name of Target Chain>
Tyrosine-protein phosphatase non-receptor type 1

> <UniProt (SwissProt) Entry Name of Target Chain>
PTN1_HUMAN

> <UniProt (SwissProt) Primary ID of Target Chain>
P18031

> <UniProt (SwissProt) Secondary ID(s) of Target Chain>
Q5TGD8,Q9BQV9,Q9NQQ4

$$$$

  SciTegic10241817252D

 36 39  0  0  0  0            999 V2000
    3.7129  -17.8308    0.0000 O   0  0
    4.4296  -18.2409    0.0000 C   0  0
    4.4293  -19.0642    0.0000 C   0  0
    5.1451  -19.4744    0.0000 C   0  0
    5.8598  -19.0588    0.0000 C   0  0
    5.8540  -18.2288    0.0000 C   0  0
    5.1376  -17.8224    0.0000 C   0  0
    6.5726  -19.4683    0.0000 C   0  0
    6.6632  -20.2890    0.0000 S   0  0
    7.4718  -20.4566    0.0000 C   0  0
    7.8810  -19.7393    0.0000 N   0  0
    7.3252  -19.1286    0.0000 N   0  0
    7.8115  -21.2093    0.0000 N   0  0
    8.6331  -21.2913    0.0000 C   0  0
    8.9728  -22.0440    0.0000 C   0  0
    9.1150  -20.6209    0.0000 O   0  0
    8.4880  -22.7100    0.0000 C   0  0
    8.8271  -23.4621    0.0000 C   0  0
    9.6496  -23.5448    0.0000 C   0  0
   10.1319  -22.8692    0.0000 C   0  0
    9.7902  -22.1198    0.0000 C   0  0
    3.7099  -17.0050    0.0000 C   0  0
    4.4252  -16.5942    0.0000 C   0  0
    4.4224  -15.7693    0.0000 C   0  0
    3.7052  -15.3582    0.0000 C   0  0
    2.9893  -15.7783    0.0000 C   0  0
    2.9956  -16.6018    0.0000 C   0  0
    3.6984  -14.5331    0.0000 N   0  3
    2.9819  -14.1226    0.0000 O   0  0
    4.4150  -14.1128    0.0000 O   0  5
   10.9575  -22.9481    0.0000 N   0  3
   11.4371  -22.2759    0.0000 O   0  0
   11.2999  -23.6995    0.0000 O   0  5
    2.2882  -17.0194    0.0000 N   0  3
    2.2928  -17.8452    0.0000 O   0  0
    1.5705  -16.6178    0.0000 O   0  5
  1  2  1  0
  2  3  2  0
  3  4  1  0
  4  5  2  0
  5  6  1  0
  6  7  2  0
  7  2  1  0
  8  9  1  0
  9 10  1  0
 10 11  2  0
 11 12  1  0
 12  8  2  0
  5  8  1  0
 10 13  1  0
 13 14  1  0
 14 15  1  0
 14 16  2  0
 15 17  2  0
 17 18  1  0
 18 19  2  0
 19 20  1  0
 20 21  2  0
 21 15  1  0
  1 22  1  0
 22 23  2  0
 23 24  1  0
 24 25  2  0
 25 26  1  0
 26 27  2  0
 27 22  1  0
 28 29  2  0
 28 30  1  0
 25 28  1  0
 31 32  2  0
 31 33  1  0
 20 31  1  0
 34 35  2  0
 34 36  1  0
 27 34  1  0
M  CHG  6  28   1  30  -1  31   1  33  -1  34   1  36  -1
M  END
> <From>
www.bindingDB.org

> <BindingDB Reactant_set_id>
50289289

> <Ligand InChI>
InChI=1S/C21H12N6O8S/c28-19(13-2-1-3-14(10-13)25(29)30)22-21-24-23-20(36-21)12-4-7-16(8-5-12)35-18-9-6-15(26(31)32)11-17(18)27(33)34/h1-11H,(H,22,24,28)

> <Ligand InChI Key>
ORUHKFFJYWHOQG-UHFFFAOYSA-N

> <BindingDB MonomerID>
50057670

> <BindingDB Ligand Name>
CHEMBL3322855

> <Target Name Assigned by Curator or DataSource>
Protein-tyrosine phosphatase 1B

> <Target Source Organism According to Curator or DataSource>
Homo sapiens

> <IC50 (nM)>
1.4

> <Curation/DataSource>
ChEMBL

> <Article DOI>
10.1016/j.bmcl.2014.07.055

> <PMID>
25124112

> <Authors>
Li, Y; Yu, Y; Jin, K; Gao, L; Luo, T; Sheng, L; Shao, X; Li, J

> <Institution>
Liaoning Normal University

> <Link to Ligand in BindingDB>
http://www.bindingdb.org/bind/chemsearch/marvin/MolStructure.jsp?monomerid=50057670

> <Link to Ligand-Target Pair in BindingDB>
http://www.bindingdb.org/jsp/dbsearch/PrimarySearch_ki.jsp?energyterm=kJ/mole&tag=r21&monomerid=50057670&enzyme=Protein-tyrosine+phosphatase+1B&column=ki&startPg=0&Increment=50&submit=Search

> <PubChem CID>
118710357

> <PubChem SID>
103953692

> <ChEMBL ID of Ligand>
CHEMBL29546

> <ZINC ID of Ligand>
ZINC13761891

> <Number of Protein Chains in Target (>
1

> <BindingDB Target Chain Sequence>
MEMEKEFEQIDKSGSWAAIYQDIRHEASDFPCRVAKLPKNKNRNRYRDVSPFDHSRIKLHQEDNDYINASLIKMEEAQRSYILTQGPLPNTCGHFWEMVWEQKSRGVVMLNRVMEKGSLKCAQYWPQKEEKEMIFEDTNLKLTLISEDIKSYYTVRQLELENLTTQETREILHFHYTTWPDFGVPESPASFLNFLFKVRESGSLSPEHGPVVVHCSAGIGRSGTFCLADTCLLLMDKRKDPSSVDIKKVLLEMRKFRMGLIQTADQLRFSYLAVIEGAKFIMGDSSVQDQWKELSHEDLEPPPEHIPPPPRPPKRILEPHNGKCREFFPNHQWVKEETQEDKDCPIKEEKGSPLNAAPYGIESMSQDTEVRSRVVGGSLRGAQAASPAKGEPSLPEKDEDHALSYWKPFLVNMCVATVLTAGAYLCYRFLFNSNT

> <PDB ID(s) of Target Chain>
1BZJ,1G7G,1GFY,1JF7,1KAK,1KAV,1LQF,1NL9,1NNY,1NO6,1NZ7,1OEM,1OEO,1OES,1OET,1OEU,1OEV,1ONY,1ONZ,1PH0,1PXH,1PYN,1Q1M,1Q6J,1Q6M,1Q6N,1Q6P,1Q6S,1Q6T,1QXK,1SUG,1T48,1T49,1T4J,1WAX,1XBO,2AZR,2B07,2BGD,2BGE,2CM2,2CM3,2CM7,2CM8,2CMA,2CMB,2CMC,2CNE,2CNF,2CNG,2CNH,2CNI,2F6T,2F6V,2F6W,2F6Y,2F6Z,2F70,2F71,2FJN,2H4G,2H4K,2HB1,2HNP,2HNQ,2QBP,2QBQ,2QBR,2QBS,2VEU,2VEV,2VEW,2VEX,2VEY,2ZMM,2ZN7,3A5J,3CWE,3D9C,3EAX,3EB1,3EU0,3I7Z,3I80,3SME,4BJO,4I8N,4QBW,4Y14,5K9V,5K9W,5KA0,5KA1,5T19,6B90

> <UniProt (SwissProt) Recommended Name of Target Chain>
Tyrosine-protein phosphatase non-receptor type 1

> <UniProt (SwissProt) Entry Name of Target Chain>
PTN1_HUMAN

> <UniProt (SwissProt) Primary ID of Target Chain>
P18031

> <UniProt (SwissProt) Secondary ID(s) of Target Chain>
Q5TGD8,Q9BQV9,Q9NQQ4

$$$$

  SciTegic10241817252D

 71 73  0  0  1  0            999 V2000
   12.7905  -10.6883    0.0000 C   0  0  1  0  0  0
   12.1203  -10.1958    0.0000 C   0  0
   11.4616  -10.6883    0.0000 C   0  0  2  0  0  0
   12.5327  -11.4673    0.0000 O   0  0
   11.7079  -11.4673    0.0000 C   0  0
   12.5327   -6.9996    0.0000 N   0  0
   13.2029   -9.9724    0.0000 O   0  0
    8.3743   -6.1576    0.0000 C   0  0  2  0  0  0
   12.6644   -6.1919    0.0000 C   0  0
    9.0902   -5.7566    0.0000 C   0  0
   13.4205  -10.4649    0.0000 C   0  0
   10.3160   -9.5600    0.0000 P   0  0
    7.6526   -5.7452    0.0000 C   0  0  2  0  0  0
    6.7074  -11.8454    0.0000 C   0  0
   11.0378   -9.9724    0.0000 O   0  0
   13.4721   -6.0545    0.0000 O   0  0
    6.9422   -6.1518    0.0000 C   0  0  1  0  0  0
    6.0029  -11.4330    0.0000 C   0  0
   14.3370  -10.7972    0.0000 C   0  0
    8.8554  -11.4502    0.0000 C   0  0  2  0  0  0
   14.0621  -10.2989    0.0000 C   0  0
   14.7437  -10.0755    0.0000 C   0  0
   10.9976  -11.8798    0.0000 C   0  0  2  0  0  0
   13.2716   -7.3718    0.0000 C   0  0
   10.2817  -11.4616    0.0000 C   0  0
    8.1337  -11.8626    0.0000 C   0  0  1  0  0  0
    9.8005   -6.1747    0.0000 N   0  0
    9.5714  -11.8626    0.0000 C   0  0  2  0  0  0
    1.7070   -9.7662    0.0000 N   0  0
    7.4292  -11.4444    0.0000 C   0  0  2  0  0  0
    5.2812  -11.8396    0.0000 C   0  0
   13.8501   -6.7876    0.0000 C   0  0
    1.7242  -10.5910    0.0000 C   0  0
   11.9485   -5.7795    0.0000 C   0  0  2  0  0  0
    6.9308   -6.9766    0.0000 N   0  0
    3.8549  -11.8282    0.0000 C   0  0
   11.1752   -8.5805    0.0000 O   0  0
    9.0960   -4.9317    0.0000 O   0  0
    4.5709  -11.4158    0.0000 C   0  0
   13.8559   -7.9619    0.0000 C   0  0
   13.8559   -8.7867    0.0000 C   0  0
    1.7070  -11.4158    0.0000 C   0  0
    2.4287  -11.8282    0.0000 C   0  0
    3.1332  -11.4158    0.0000 C   0  0
   11.2268   -6.1862    0.0000 C   0  0
   10.5165   -5.7623    0.0000 C   0  0  1  0  0  0
    9.4912   -9.5542    0.0000 O   0  0
   10.1098   -8.7523    0.0000 O   0  0
    8.3685   -6.9824    0.0000 O   0  0
    7.6697   -4.9203    0.0000 O   0  0
   12.7046   -9.6115    0.0000 C   0  0
   11.8969   -9.3995    0.0000 C   0  0
   14.6120  -11.5705    0.0000 O   0  0
    8.1337  -12.6874    0.0000 O   0  0
    9.5600  -12.6874    0.0000 O   0  0
   14.2683   -9.5026    0.0000 C   0  0
   10.9862  -12.7046    0.0000 O   0  0
    6.2263   -5.7280    0.0000 C   0  0
    8.8554  -10.6253    0.0000 C   0  0
    6.0029  -10.6082    0.0000 C   0  0
   15.1447   -9.3652    0.0000 C   0  0
    5.5160   -6.1404    0.0000 O   0  0
    5.2640  -12.6644    0.0000 C   0  0
    7.4292  -10.6196    0.0000 C   0  0
    6.2205   -7.3776    0.0000 C   0  0
    6.9308   -7.8014    0.0000 C   0  0
   11.9485   -4.9547    0.0000 C   0  0
    2.4229  -12.6530    0.0000 C   0  0
   10.5222   -4.9375    0.0000 C   0  0
   11.7021  -13.1170    0.0000 C   0  0
    4.8000   -5.7280    0.0000 C   0  0
  1  2  1  0
  3  2  1  0
  1  4  1  6
  5  4  1  0
  6 24  1  0
  1  7  1  0
  8 10  1  0
  9  6  2  0
 10 27  1  0
  1 11  1  0
 12 15  1  0
 13  8  1  0
 30 14  1  0
  3 15  1  6
 16 32  1  0
 13 17  1  0
 18 14  2  0
 19 11  1  0
 20 28  1  0
 21  7  1  0
 22 19  1  0
 23  5  1  0
 24 40  1  0
 23 25  1  0
 20 26  1  0
 46 27  1  0
 28 25  1  0
 29 33  3  0
 26 30  1  0
 31 18  1  0
 32 24  2  0
 33 42  1  0
 34  9  1  0
 17 35  1  1
 36 39  1  0
 37 12  2  0
 38 10  2  0
 39 31  2  0
 40 41  2  0
 41 56  1  0
 42 43  2  0
 43 44  1  0
 44 36  2  0
 34 45  1  0
 46 45  1  0
 47 12  1  0
 48 12  1  0
  8 49  1  1
 13 50  1  6
  2 51  1  0
  2 52  1  0
 53 19  1  0
 26 54  1  6
 28 55  1  6
 56 21  1  0
 23 57  1  1
 17 58  1  0
 20 59  1  1
 60 18  1  0
 61 22  1  0
 62 58  1  0
 63 31  1  0
 30 64  1  1
 65 35  1  0
 66 35  1  0
 34 67  1  6
 68 43  1  0
 46 69  1  6
 70 57  1  0
 71 62  1  0
  3  5  1  0
 22 21  1  0
 16  9  1  0
M  END
> <From>
www.bindingDB.org

> <BindingDB Reactant_set_id>
50782670

> <Ligand InChI>
InChI=1S/C51H83N4O15P/c1-29(21-22-52)17-15-18-30(2)31(3)23-32(4)43(58)36(8)39(56)25-42(66-14)46-47(70-71(62,63)64)50(9,10)51(69-46)26-40(57)35(7)41(68-51)20-16-19-37-27-67-49(54-37)33(5)24-34(6)53-48(61)45(60)44(59)38(28-65-13)55(11)12/h15-19,21,23,27,32-36,38-47,56-60H,20,24-26,28H2,1-14H3,(H,53,61)(H2,62,63,64)/b17-15+,19-16+,29-21-,30-18+,31-23+/t32-,33+,34-,35?,36+,38+,39+,40?,41?,42+,43-,44+,45+,46?,47+,51-/m1/s1

> <Ligand InChI Key>
MDHVPFKPZGGNLB-CVUGGBTCSA-N

> <BindingDB MonomerID>
50061069

> <BindingDB Ligand Name>
CHEMBL384277::Calyculin C

> <Target Name Assigned by Curator or DataSource>
Protein-tyrosine phosphatase 1B (PTP1B)

> <Target Source Organism According to Curator or DataSource>
Homo sapiens

> <IC50 (nM)>
1.5

> <Curation/DataSource>
ChEMBL

> <Article DOI>
10.1021/jm960873x

> <PMID>
9379439

> <Authors>
Gupta, V; Ogawa, AK; Du, X; Houk, KN; Armstrong, RW

> <Institution>
University of California

> <Link to Ligand in BindingDB>
http://www.bindingdb.org/bind/chemsearch/marvin/MolStructure.jsp?monomerid=50061069

> <Link to Ligand-Target Pair in BindingDB>
http://www.bindingdb.org/jsp/dbsearch/PrimarySearch_ki.jsp?energyterm=kJ/mole&tag=r21&monomerid=50061069&enzyme=Protein-tyrosine+phosphatase+1B+%28PTP1B%29&column=ki&startPg=0&Increment=50&submit=Search

> <PubChem CID>
44338868

> <PubChem SID>
103956656

> <ChEMBL ID of Ligand>
CHEMBL384277

> <Number of Protein Chains in Target (>
1

> <BindingDB Target Chain Sequence>
MEMEKEFEQIDKSGSWAAIYQDIRHEASDFPCRVAKLPKNKNRNRYRDVSPFDHSRIKLHQEDNDYINASLIKMEEAQRSYILTQGPLPNTCGHFWEMVWEQKSRGVVMLNRVMEKGSLKCAQYWPQKEEKEMIFEDTNLKLTLISEDIKSYYTVRQLELENLTTQETREILHFHYTTWPDFGVPESPASFLNFLFKVRESGSLSPEHGPVVVHCSAGIGRSGTFCLADTCLLLMDKRKDPSSVDIKKVLLEMRKFRMGLIQTADQLRFSYLAVIEGAKFIMGDSSVQDQWKELSHEDLEPPPEHIPPPPRPPKRILEPHNGKCREFFPNHQWVKEETQEDKDCPIKEEKGSPLNAAPYGIESMSQDTEVRSRVVGGSLRGAQAASPAKGEPSLPEKDEDHALSYWKPFLVNMCVATVLTAGAYLCYRFLFNSNT

> <PDB ID(s) of Target Chain>
1BZJ,1G7G,1GFY,1JF7,1KAK,1KAV,1LQF,1NL9,1NNY,1NO6,1NZ7,1OEM,1OEO,1OES,1OET,1OEU,1OEV,1ONY,1ONZ,1PH0,1PXH,1PYN,1Q1M,1Q6J,1Q6M,1Q6N,1Q6P,1Q6S,1Q6T,1QXK,1SUG,1T48,1T49,1T4J,1WAX,1XBO,2AZR,2B07,2BGD,2BGE,2CM2,2CM3,2CM7,2CM8,2CMA,2CMB,2CMC,2CNE,2CNF,2CNG,2CNH,2CNI,2F6T,2F6V,2F6W,2F6Y,2F6Z,2F70,2F71,2FJN,2H4G,2H4K,2HB1,2HNP,2HNQ,2QBP,2QBQ,2QBR,2QBS,2VEU,2VEV,2VEW,2VEX,2VEY,2ZMM,2ZN7,3A5J,3CWE,3D9C,3EAX,3EB1,3EU0,3I7Z,3I80,3SME,4BJO,4I8N,4QBW,4Y14

> <UniProt (SwissProt) Recommended Name of Target Chain>
Tyrosine-protein phosphatase non-receptor type 1

> <UniProt (SwissProt) Entry Name of Target Chain>
PTN1_HUMAN

> <UniProt (SwissProt) Primary ID of Target Chain>
P18031

> <UniProt (SwissProt) Secondary ID(s) of Target Chain>
Q5TGD8,Q9BQV9,Q9NQQ4

$$$$

  SciTegic10241817252D

 30 31  0  0  0  0            999 V2000
    1.3233   -1.8492    0.0000 O   0  0
   -0.1056    0.6258    0.0000 O   0  0
   -1.5345    0.6258    0.0000 O   0  0
   -5.1069   -3.0867    0.0000 O   0  0
   -0.1056   -0.1992    0.0000 C   0  0
    0.6089   -0.6117    0.0000 C   0  0
   -0.8201   -0.6117    0.0000 C   0  0
    0.6089   -1.4367    0.0000 C   0  0
   -1.5345   -0.1992    0.0000 C   0  0
   -0.8201   -1.4367    0.0000 C   0  0
   -0.1056   -1.8492    0.0000 C   0  0
    1.3233   -0.1992    0.0000 C   0  0
   -2.2490   -0.6117    0.0000 C   0  0
    1.3233    0.6258    0.0000 C   0  0
   -2.2490   -1.4367    0.0000 C   0  0
   -2.9635   -1.8492    0.0000 C   0  0
    2.0378    1.0383    0.0000 C   0  0
   -2.9635   -2.6742    0.0000 C   0  0
   -3.6780   -1.4367    0.0000 C   0  0
    1.3233   -2.6742    0.0000 C   0  0
   -4.3924   -2.6742    0.0000 C   0  0
   -3.6780   -3.0867    0.0000 C   0  0
   -4.3924   -1.8492    0.0000 C   0  0
    2.0378    1.8633    0.0000 C   0  0
    2.7523    0.6258    0.0000 C   0  0
    2.7523    2.2758    0.0000 C   0  0
    2.7523    3.1008    0.0000 C   0  0
    3.4667    3.5133    0.0000 C   0  0
    3.4667    4.3383    0.0000 C   0  0
    4.1812    3.1008    0.0000 C   0  0
  1  8  1  0
  1 20  1  0
  2  5  1  0
  3  9  2  0
  4 21  1  0
  5  6  2  0
  5  7  1  0
  6  8  1  0
  6 12  1  0
  7  9  1  0
  7 10  2  0
  8 11  2  0
  9 13  1  0
 10 11  1  0
 12 14  1  0
 13 15  2  0
 14 17  2  0
 15 16  1  0
 16 18  2  0
 16 19  1  0
 17 24  1  0
 17 25  1  0
 18 22  1  0
 19 23  2  0
 21 22  2  0
 21 23  1  0
 24 26  1  0
 26 27  1  0
 27 28  2  0
 28 29  1  0
 28 30  1  0
M  END
> <From>
www.bindingDB.org

> <BindingDB Reactant_set_id>
50308833

> <Ligand InChI>
InChI=1S/C26H30O4/c1-18(2)6-5-7-19(3)8-14-23-25(30-4)17-15-22(26(23)29)24(28)16-11-20-9-12-21(27)13-10-20/h6,8-13,15-17,27,29H,5,7,14H2,1-4H3/b16-11+,19-8+

> <Ligand InChI Key>
XBFSDEKOTLYPJU-SXZUIPJJSA-N

> <BindingDB MonomerID>
50352811

> <BindingDB Ligand Name>
CHEMBL1722838

> <Target Name Assigned by Curator or DataSource>
Protein-tyrosine phosphatase 1B

> <Target Source Organism According to Curator or DataSource>
Homo sapiens

> <IC50 (nM)>
1.7

> <Curation/DataSource>
ChEMBL

> <Article DOI>
10.1016/j.bmcl.2015.04.003

> <PMID>
25891102

> <Authors>
Li, JL; Gao, LX; Meng, FW; Tang, CL; Zhang, RJ; Li, JY; Luo, C; Li, J; Zhao, WM

> <Institution>
Chinese Academy of Sciences

> <Link to Ligand in BindingDB>
http://www.bindingdb.org/bind/chemsearch/marvin/MolStructure.jsp?monomerid=50352811

> <Link to Ligand-Target Pair in BindingDB>
http://www.bindingdb.org/jsp/dbsearch/PrimarySearch_ki.jsp?energyterm=kJ/mole&tag=r21&monomerid=50352811&enzyme=Protein-tyrosine+phosphatase+1B&column=ki&startPg=0&Increment=50&submit=Search

> <PubChem CID>
6479088

> <PubChem SID>
136359497

> <ChEMBL ID of Ligand>
CHEMBL1722838

> <ZINC ID of Ligand>
ZINC14884922

> <Number of Protein Chains in Target (>
1

> <BindingDB Target Chain Sequence>
MEMEKEFEQIDKSGSWAAIYQDIRHEASDFPCRVAKLPKNKNRNRYRDVSPFDHSRIKLHQEDNDYINASLIKMEEAQRSYILTQGPLPNTCGHFWEMVWEQKSRGVVMLNRVMEKGSLKCAQYWPQKEEKEMIFEDTNLKLTLISEDIKSYYTVRQLELENLTTQETREILHFHYTTWPDFGVPESPASFLNFLFKVRESGSLSPEHGPVVVHCSAGIGRSGTFCLADTCLLLMDKRKDPSSVDIKKVLLEMRKFRMGLIQTADQLRFSYLAVIEGAKFIMGDSSVQDQWKELSHEDLEPPPEHIPPPPRPPKRILEPHNGKCREFFPNHQWVKEETQEDKDCPIKEEKGSPLNAAPYGIESMSQDTEVRSRVVGGSLRGAQAASPAKGEPSLPEKDEDHALSYWKPFLVNMCVATVLTAGAYLCYRFLFNSNT

> <PDB ID(s) of Target Chain>
1BZJ,1G7G,1GFY,1JF7,1KAK,1KAV,1LQF,1NL9,1NNY,1NO6,1NZ7,1OEM,1OEO,1OES,1OET,1OEU,1OEV,1ONY,1ONZ,1PH0,1PXH,1PYN,1Q1M,1Q6J,1Q6M,1Q6N,1Q6P,1Q6S,1Q6T,1QXK,1SUG,1T48,1T49,1T4J,1WAX,1XBO,2AZR,2B07,2BGD,2BGE,2CM2,2CM3,2CM7,2CM8,2CMA,2CMB,2CMC,2CNE,2CNF,2CNG,2CNH,2CNI,2F6T,2F6V,2F6W,2F6Y,2F6Z,2F70,2F71,2FJN,2H4G,2H4K,2HB1,2HNP,2HNQ,2QBP,2QBQ,2QBR,2QBS,2VEU,2VEV,2VEW,2VEX,2VEY,2ZMM,2ZN7,3A5J,3CWE,3D9C,3EAX,3EB1,3EU0,3I7Z,3I80,3SME,4BJO,4I8N,4QBW,4Y14,5K9V,5K9W,5KA0,5KA1,5T19,6B90

> <UniProt (SwissProt) Recommended Name of Target Chain>
Tyrosine-protein phosphatase non-receptor type 1

> <UniProt (SwissProt) Entry Name of Target Chain>
PTN1_HUMAN

> <UniProt (SwissProt) Primary ID of Target Chain>
P18031

> <UniProt (SwissProt) Secondary ID(s) of Target Chain>
Q5TGD8,Q9BQV9,Q9NQQ4

$$$$

  SciTegic10241817252D

 33 36  0  0  0  0            999 V2000
    5.9942  -25.9969    0.0000 O   0  0
    6.7110  -26.4071    0.0000 C   0  0
    6.7107  -27.2306    0.0000 C   0  0
    7.4265  -27.6406    0.0000 C   0  0
    8.1411  -27.2250    0.0000 C   0  0
    8.1354  -26.3950    0.0000 C   0  0
    7.4189  -25.9886    0.0000 C   0  0
    8.8540  -27.6346    0.0000 C   0  0
    8.9446  -28.4553    0.0000 S   0  0
    9.7532  -28.6228    0.0000 C   0  0
   10.1624  -27.9056    0.0000 N   0  0
    9.6067  -27.2948    0.0000 N   0  0
   10.0928  -29.3755    0.0000 N   0  0
   10.9145  -29.4577    0.0000 C   0  0
   11.2543  -30.2103    0.0000 C   0  0
   11.3964  -28.7871    0.0000 O   0  0
   10.7694  -30.8763    0.0000 C   0  0
   11.1085  -31.6284    0.0000 C   0  0
   11.9311  -31.7111    0.0000 C   0  0
   12.4134  -31.0356    0.0000 C   0  0
   12.0717  -30.2861    0.0000 C   0  0
    5.9912  -25.1712    0.0000 C   0  0
    6.7065  -24.7604    0.0000 C   0  0
    6.7037  -23.9354    0.0000 C   0  0
    5.9866  -23.5244    0.0000 C   0  0
    5.2706  -23.9444    0.0000 C   0  0
    5.2769  -24.7681    0.0000 C   0  0
    5.9798  -22.6992    0.0000 N   0  3
    5.2633  -22.2887    0.0000 O   0  0
    6.6963  -22.2789    0.0000 O   0  5
   12.2736  -32.4678    0.0000 N   0  3
   13.0954  -32.5489    0.0000 O   0  0
   11.7926  -33.1390    0.0000 O   0  5
  1  2  1  0
  2  3  2  0
  3  4  1  0
  4  5  2  0
  5  6  1  0
  6  7  2  0
  7  2  1  0
  8  9  1  0
  9 10  1  0
 10 11  2  0
 11 12  1  0
 12  8  2  0
  5  8  1  0
 10 13  1  0
 13 14  1  0
 14 15  1  0
 14 16  2  0
 15 17  2  0
 17 18  1  0
 18 19  2  0
 19 20  1  0
 20 21  2  0
 21 15  1  0
  1 22  1  0
 22 23  2  0
 23 24  1  0
 24 25  2  0
 25 26  1  0
 26 27  2  0
 27 22  1  0
 28 29  2  0
 28 30  1  0
 25 28  1  0
 31 32  2  0
 31 33  1  0
 19 31  1  0
M  CHG  4  28   1  30  -1  31   1  33  -1
M  END
> <From>
www.bindingDB.org

> <BindingDB Reactant_set_id>
50289257

> <Ligand InChI>
InChI=1S/C21H13N5O6S/c27-19(13-1-5-15(6-2-13)25(28)29)22-21-24-23-20(33-21)14-3-9-17(10-4-14)32-18-11-7-16(8-12-18)26(30)31/h1-12H,(H,22,24,27)

> <Ligand InChI Key>
ILNFAGURYJOSOH-UHFFFAOYSA-N

> <BindingDB MonomerID>
50057658

> <BindingDB Ligand Name>
CHEMBL3322840

> <Target Name Assigned by Curator or DataSource>
Protein-tyrosine phosphatase 1B

> <Target Source Organism According to Curator or DataSource>
Homo sapiens

> <IC50 (nM)>
1.7

> <Curation/DataSource>
ChEMBL

> <Article DOI>
10.1016/j.bmcl.2014.07.055

> <PMID>
25124112

> <Authors>
Li, Y; Yu, Y; Jin, K; Gao, L; Luo, T; Sheng, L; Shao, X; Li, J

> <Institution>
Liaoning Normal University

> <Link to Ligand in BindingDB>
http://www.bindingdb.org/bind/chemsearch/marvin/MolStructure.jsp?monomerid=50057658

> <Link to Ligand-Target Pair in BindingDB>
http://www.bindingdb.org/jsp/dbsearch/PrimarySearch_ki.jsp?energyterm=kJ/mole&tag=r21&monomerid=50057658&enzyme=Protein-tyrosine+phosphatase+1B&column=ki&startPg=0&Increment=50&submit=Search

> <PubChem CID>
118710342

> <PubChem SID>
313070347

> <Number of Protein Chains in Target (>
1

> <BindingDB Target Chain Sequence>
MEMEKEFEQIDKSGSWAAIYQDIRHEASDFPCRVAKLPKNKNRNRYRDVSPFDHSRIKLHQEDNDYINASLIKMEEAQRSYILTQGPLPNTCGHFWEMVWEQKSRGVVMLNRVMEKGSLKCAQYWPQKEEKEMIFEDTNLKLTLISEDIKSYYTVRQLELENLTTQETREILHFHYTTWPDFGVPESPASFLNFLFKVRESGSLSPEHGPVVVHCSAGIGRSGTFCLADTCLLLMDKRKDPSSVDIKKVLLEMRKFRMGLIQTADQLRFSYLAVIEGAKFIMGDSSVQDQWKELSHEDLEPPPEHIPPPPRPPKRILEPHNGKCREFFPNHQWVKEETQEDKDCPIKEEKGSPLNAAPYGIESMSQDTEVRSRVVGGSLRGAQAASPAKGEPSLPEKDEDHALSYWKPFLVNMCVATVLTAGAYLCYRFLFNSNT

> <PDB ID(s) of Target Chain>
1BZJ,1G7G,1GFY,1JF7,1KAK,1KAV,1LQF,1NL9,1NNY,1NO6,1NZ7,1OEM,1OEO,1OES,1OET,1OEU,1OEV,1ONY,1ONZ,1PH0,1PXH,1PYN,1Q1M,1Q6J,1Q6M,1Q6N,1Q6P,1Q6S,1Q6T,1QXK,1SUG,1T48,1T49,1T4J,1WAX,1XBO,2AZR,2B07,2BGD,2BGE,2CM2,2CM3,2CM7,2CM8,2CMA,2CMB,2CMC,2CNE,2CNF,2CNG,2CNH,2CNI,2F6T,2F6V,2F6W,2F6Y,2F6Z,2F70,2F71,2FJN,2H4G,2H4K,2HB1,2HNP,2HNQ,2QBP,2QBQ,2QBR,2QBS,2VEU,2VEV,2VEW,2VEX,2VEY,2ZMM,2ZN7,3A5J,3CWE,3D9C,3EAX,3EB1,3EU0,3I7Z,3I80,3SME,4BJO,4I8N,4QBW,4Y14,5K9V,5K9W,5KA0,5KA1,5T19,6B90

> <UniProt (SwissProt) Recommended Name of Target Chain>
Tyrosine-protein phosphatase non-receptor type 1

> <UniProt (SwissProt) Entry Name of Target Chain>
PTN1_HUMAN

> <UniProt (SwissProt) Primary ID of Target Chain>
P18031

> <UniProt (SwissProt) Secondary ID(s) of Target Chain>
Q5TGD8,Q9BQV9,Q9NQQ4

$$$$

  SciTegic10241817252D

 34 37  0  0  0  0            999 V2000
   12.8377  -15.8078    0.0000 O   0  0
   13.5544  -16.2179    0.0000 C   0  0
   13.5541  -17.0413    0.0000 C   0  0
   14.2699  -17.4514    0.0000 C   0  0
   14.9845  -17.0358    0.0000 C   0  0
   14.9786  -16.2058    0.0000 C   0  0
   14.2623  -15.7994    0.0000 C   0  0
   15.6974  -17.4452    0.0000 C   0  0
   15.7878  -18.2660    0.0000 S   0  0
   16.5964  -18.4336    0.0000 C   0  0
   17.0057  -17.7164    0.0000 N   0  0
   16.4499  -17.1056    0.0000 N   0  0
   16.9361  -19.1863    0.0000 N   0  0
   17.7578  -19.2683    0.0000 C   0  0
   18.0975  -20.0210    0.0000 C   0  0
   18.2397  -18.5979    0.0000 O   0  0
   17.6127  -20.6870    0.0000 C   0  0
   17.9518  -21.4391    0.0000 C   0  0
   18.7742  -21.5217    0.0000 C   0  0
   19.2565  -20.8461    0.0000 C   0  0
   18.9149  -20.0968    0.0000 C   0  0
   12.8345  -14.9821    0.0000 C   0  0
   13.5499  -14.5713    0.0000 C   0  0
   13.5471  -13.7464    0.0000 C   0  0
   12.8299  -13.3353    0.0000 C   0  0
   12.1141  -13.7554    0.0000 C   0  0
   12.1203  -14.5789    0.0000 C   0  0
   12.8232  -12.5102    0.0000 N   0  3
   12.1067  -12.0997    0.0000 O   0  0
   13.5396  -12.0899    0.0000 O   0  5
   19.3931  -19.4236    0.0000 F   0  0
   11.4075  -15.0011    0.0000 N   0  3
   11.4146  -15.8268    0.0000 O   0  0
   10.6888  -14.5944    0.0000 O   0  5
  1  2  1  0
  2  3  2  0
  3  4  1  0
  4  5  2  0
  5  6  1  0
  6  7  2  0
  7  2  1  0
  8  9  1  0
  9 10  1  0
 10 11  2  0
 11 12  1  0
 12  8  2  0
  5  8  1  0
 10 13  1  0
 13 14  1  0
 14 15  1  0
 14 16  2  0
 15 17  2  0
 17 18  1  0
 18 19  2  0
 19 20  1  0
 20 21  2  0
 21 15  1  0
  1 22  1  0
 22 23  2  0
 23 24  1  0
 24 25  2  0
 25 26  1  0
 26 27  2  0
 27 22  1  0
 28 29  2  0
 28 30  1  0
 25 28  1  0
 21 31  1  0
 32 33  2  0
 32 34  1  0
 27 32  1  0
M  CHG  4  28   1  30  -1  32   1  34  -1
M  END
> <From>
www.bindingDB.org

> <BindingDB Reactant_set_id>
50289287

> <Ligand InChI>
InChI=1S/C21H12FN5O6S/c22-16-4-2-1-3-15(16)19(28)23-21-25-24-20(34-21)12-5-8-14(9-6-12)33-18-10-7-13(26(29)30)11-17(18)27(31)32/h1-11H,(H,23,25,28)

> <Ligand InChI Key>
FPXCSBCJYQINEW-UHFFFAOYSA-N

> <BindingDB MonomerID>
50057668

> <BindingDB Ligand Name>
CHEMBL3322853

> <Target Name Assigned by Curator or DataSource>
Protein-tyrosine phosphatase 1B

> <Target Source Organism According to Curator or DataSource>
Homo sapiens

> <IC50 (nM)>
1.7

> <Curation/DataSource>
ChEMBL

> <Article DOI>
10.1016/j.bmcl.2014.07.055

> <PMID>
25124112

> <Authors>
Li, Y; Yu, Y; Jin, K; Gao, L; Luo, T; Sheng, L; Shao, X; Li, J

> <Institution>
Liaoning Normal University

> <Link to Ligand in BindingDB>
http://www.bindingdb.org/bind/chemsearch/marvin/MolStructure.jsp?monomerid=50057668

> <Link to Ligand-Target Pair in BindingDB>
http://www.bindingdb.org/jsp/dbsearch/PrimarySearch_ki.jsp?energyterm=kJ/mole&tag=r21&monomerid=50057668&enzyme=Protein-tyrosine+phosphatase+1B&column=ki&startPg=0&Increment=50&submit=Search

> <PubChem CID>
118710355

> <PubChem SID>
103953690

> <ChEMBL ID of Ligand>
CHEMBL283179

> <ZINC ID of Ligand>
ZINC01663336

> <Number of Protein Chains in Target (>
1

> <BindingDB Target Chain Sequence>
MEMEKEFEQIDKSGSWAAIYQDIRHEASDFPCRVAKLPKNKNRNRYRDVSPFDHSRIKLHQEDNDYINASLIKMEEAQRSYILTQGPLPNTCGHFWEMVWEQKSRGVVMLNRVMEKGSLKCAQYWPQKEEKEMIFEDTNLKLTLISEDIKSYYTVRQLELENLTTQETREILHFHYTTWPDFGVPESPASFLNFLFKVRESGSLSPEHGPVVVHCSAGIGRSGTFCLADTCLLLMDKRKDPSSVDIKKVLLEMRKFRMGLIQTADQLRFSYLAVIEGAKFIMGDSSVQDQWKELSHEDLEPPPEHIPPPPRPPKRILEPHNGKCREFFPNHQWVKEETQEDKDCPIKEEKGSPLNAAPYGIESMSQDTEVRSRVVGGSLRGAQAASPAKGEPSLPEKDEDHALSYWKPFLVNMCVATVLTAGAYLCYRFLFNSNT

> <PDB ID(s) of Target Chain>
1BZJ,1G7G,1GFY,1JF7,1KAK,1KAV,1LQF,1NL9,1NNY,1NO6,1NZ7,1OEM,1OEO,1OES,1OET,1OEU,1OEV,1ONY,1ONZ,1PH0,1PXH,1PYN,1Q1M,1Q6J,1Q6M,1Q6N,1Q6P,1Q6S,1Q6T,1QXK,1SUG,1T48,1T49,1T4J,1WAX,1XBO,2AZR,2B07,2BGD,2BGE,2CM2,2CM3,2CM7,2CM8,2CMA,2CMB,2CMC,2CNE,2CNF,2CNG,2CNH,2CNI,2F6T,2F6V,2F6W,2F6Y,2F6Z,2F70,2F71,2FJN,2H4G,2H4K,2HB1,2HNP,2HNQ,2QBP,2QBQ,2QBR,2QBS,2VEU,2VEV,2VEW,2VEX,2VEY,2ZMM,2ZN7,3A5J,3CWE,3D9C,3EAX,3EB1,3EU0,3I7Z,3I80,3SME,4BJO,4I8N,4QBW,4Y14,5K9V,5K9W,5KA0,5KA1,5T19,6B90

> <UniProt (SwissProt) Recommended Name of Target Chain>
Tyrosine-protein phosphatase non-receptor type 1

> <UniProt (SwissProt) Entry Name of Target Chain>
PTN1_HUMAN

> <UniProt (SwissProt) Primary ID of Target Chain>
P18031

> <UniProt (SwissProt) Secondary ID(s) of Target Chain>
Q5TGD8,Q9BQV9,Q9NQQ4

$$$$

  SciTegic10241817252D

 35 38  0  0  0  0            999 V2000
   15.7655   -2.3625    0.0000 O   0  0
   16.4823   -2.7726    0.0000 C   0  0
   16.4820   -3.5960    0.0000 C   0  0
   17.1978   -4.0061    0.0000 C   0  0
   17.9124   -3.5905    0.0000 C   0  0
   17.9066   -2.7605    0.0000 C   0  0
   17.1902   -2.3541    0.0000 C   0  0
   18.6253   -4.0001    0.0000 C   0  0
   18.7158   -4.8208    0.0000 S   0  0
   19.5244   -4.9883    0.0000 C   0  0
   19.9337   -4.2711    0.0000 N   0  0
   19.3779   -3.6603    0.0000 N   0  0
   19.8640   -5.7410    0.0000 N   0  0
   20.6858   -5.8232    0.0000 C   0  0
   21.0255   -6.5758    0.0000 C   0  0
   21.1677   -5.1526    0.0000 O   0  0
   20.5407   -7.2418    0.0000 C   0  0
   20.8798   -7.9939    0.0000 C   0  0
   21.7023   -8.0765    0.0000 C   0  0
   22.1845   -7.4009    0.0000 C   0  0
   21.8429   -6.6516    0.0000 C   0  0
   15.7625   -1.5367    0.0000 C   0  0
   16.4778   -1.1260    0.0000 C   0  0
   16.4750   -0.3010    0.0000 C   0  0
   15.7579    0.1152    0.0000 C   0  0
   15.0419   -0.3100    0.0000 C   0  0
   15.0482   -1.1336    0.0000 C   0  0
   15.7511    0.9415    0.0000 N   0  3
   15.0346    1.3485    0.0000 O   0  0
   16.4676    1.3637    0.0000 O   0  5
   22.3211   -5.9785    0.0000 O   0  0
   23.1431   -6.0561    0.0000 C   0  0
   14.3400   -1.5557    0.0000 N   0  3
   14.3471   -2.3815    0.0000 O   0  0
   13.6212   -1.1491    0.0000 O   0  5
  1  2  1  0
  2  3  2  0
  3  4  1  0
  4  5  2  0
  5  6  1  0
  6  7  2  0
  7  2  1  0
  8  9  1  0
  9 10  1  0
 10 11  2  0
 11 12  1  0
 12  8  2  0
  5  8  1  0
 10 13  1  0
 13 14  1  0
 14 15  1  0
 14 16  2  0
 15 17  2  0
 17 18  1  0
 18 19  2  0
 19 20  1  0
 20 21  2  0
 21 15  1  0
  1 22  1  0
 22 23  2  0
 23 24  1  0
 24 25  2  0
 25 26  1  0
 26 27  2  0
 27 22  1  0
 28 29  2  0
 28 30  1  0
 25 28  1  0
 21 31  1  0
 31 32  1  0
 33 34  2  0
 33 35  1  0
 27 33  1  0
M  CHG  4  28   1  30  -1  33   1  35  -1
M  END
> <From>
www.bindingDB.org

> <BindingDB Reactant_set_id>
50289282

> <Ligand InChI>
InChI=1S/C22H15N5O7S/c1-33-18-5-3-2-4-16(18)20(28)23-22-25-24-21(35-22)13-6-9-15(10-7-13)34-19-11-8-14(26(29)30)12-17(19)27(31)32/h2-12H,1H3,(H,23,25,28)

> <Ligand InChI Key>
IKMGUFBLMPRXEX-UHFFFAOYSA-N

> <BindingDB MonomerID>
50057712

> <BindingDB Ligand Name>
CHEMBL3322847

> <Target Name Assigned by Curator or DataSource>
Protein-tyrosine phosphatase 1B

> <Target Source Organism According to Curator or DataSource>
Homo sapiens

> <IC50 (nM)>
1.9

> <Curation/DataSource>
ChEMBL

> <Article DOI>
10.1016/j.bmcl.2014.07.055

> <PMID>
25124112

> <Authors>
Li, Y; Yu, Y; Jin, K; Gao, L; Luo, T; Sheng, L; Shao, X; Li, J

> <Institution>
Liaoning Normal University

> <Link to Ligand in BindingDB>
http://www.bindingdb.org/bind/chemsearch/marvin/MolStructure.jsp?monomerid=50057712

> <Link to Ligand-Target Pair in BindingDB>
http://www.bindingdb.org/jsp/dbsearch/PrimarySearch_ki.jsp?energyterm=kJ/mole&tag=r21&monomerid=50057712&enzyme=Protein-tyrosine+phosphatase+1B&column=ki&startPg=0&Increment=50&submit=Search

> <PubChem CID>
118710349

> <PubChem SID>
103953734

> <ZINC ID of Ligand>
ZINC38155641

> <Number of Protein Chains in Target (>
1

> <BindingDB Target Chain Sequence>
MEMEKEFEQIDKSGSWAAIYQDIRHEASDFPCRVAKLPKNKNRNRYRDVSPFDHSRIKLHQEDNDYINASLIKMEEAQRSYILTQGPLPNTCGHFWEMVWEQKSRGVVMLNRVMEKGSLKCAQYWPQKEEKEMIFEDTNLKLTLISEDIKSYYTVRQLELENLTTQETREILHFHYTTWPDFGVPESPASFLNFLFKVRESGSLSPEHGPVVVHCSAGIGRSGTFCLADTCLLLMDKRKDPSSVDIKKVLLEMRKFRMGLIQTADQLRFSYLAVIEGAKFIMGDSSVQDQWKELSHEDLEPPPEHIPPPPRPPKRILEPHNGKCREFFPNHQWVKEETQEDKDCPIKEEKGSPLNAAPYGIESMSQDTEVRSRVVGGSLRGAQAASPAKGEPSLPEKDEDHALSYWKPFLVNMCVATVLTAGAYLCYRFLFNSNT

> <PDB ID(s) of Target Chain>
1BZJ,1G7G,1GFY,1JF7,1KAK,1KAV,1LQF,1NL9,1NNY,1NO6,1NZ7,1OEM,1OEO,1OES,1OET,1OEU,1OEV,1ONY,1ONZ,1PH0,1PXH,1PYN,1Q1M,1Q6J,1Q6M,1Q6N,1Q6P,1Q6S,1Q6T,1QXK,1SUG,1T48,1T49,1T4J,1WAX,1XBO,2AZR,2B07,2BGD,2BGE,2CM2,2CM3,2CM7,2CM8,2CMA,2CMB,2CMC,2CNE,2CNF,2CNG,2CNH,2CNI,2F6T,2F6V,2F6W,2F6Y,2F6Z,2F70,2F71,2FJN,2H4G,2H4K,2HB1,2HNP,2HNQ,2QBP,2QBQ,2QBR,2QBS,2VEU,2VEV,2VEW,2VEX,2VEY,2ZMM,2ZN7,3A5J,3CWE,3D9C,3EAX,3EB1,3EU0,3I7Z,3I80,3SME,4BJO,4I8N,4QBW,4Y14,5K9V,5K9W,5KA0,5KA1,5T19,6B90

> <UniProt (SwissProt) Recommended Name of Target Chain>
Tyrosine-protein phosphatase non-receptor type 1

> <UniProt (SwissProt) Entry Name of Target Chain>
PTN1_HUMAN

> <UniProt (SwissProt) Primary ID of Target Chain>
P18031

> <UniProt (SwissProt) Secondary ID(s) of Target Chain>
Q5TGD8,Q9BQV9,Q9NQQ4

$$$$

  SciTegic10241817252D

 34 37  0  0  0  0            999 V2000
   13.5292  -27.2457    0.0000 O   0  0
   14.2459  -27.6559    0.0000 C   0  0
   14.2456  -28.4792    0.0000 C   0  0
   14.9614  -28.8893    0.0000 C   0  0
   15.6759  -28.4737    0.0000 C   0  0
   15.6702  -27.6438    0.0000 C   0  0
   14.9538  -27.2374    0.0000 C   0  0
   16.3888  -28.8831    0.0000 C   0  0
   16.4793  -29.7039    0.0000 S   0  0
   17.2878  -29.8714    0.0000 C   0  0
   17.6970  -29.1542    0.0000 N   0  0
   17.1413  -28.5435    0.0000 N   0  0
   17.6274  -30.6240    0.0000 N   0  0
   18.4491  -30.7061    0.0000 C   0  0
   18.7888  -31.4587    0.0000 C   0  0
   18.9309  -30.0357    0.0000 O   0  0
   13.5262  -26.4201    0.0000 C   0  0
   14.2414  -26.0093    0.0000 C   0  0
   14.2386  -25.1843    0.0000 C   0  0
   13.5215  -24.7734    0.0000 C   0  0
   12.8057  -25.1934    0.0000 C   0  0
   12.8119  -26.0169    0.0000 C   0  0
   13.5148  -23.9483    0.0000 N   0  3
   12.7983  -23.5379    0.0000 O   0  0
   14.2312  -23.5281    0.0000 O   0  5
   19.6103  -31.5408    0.0000 C   0  0
   19.9452  -32.2947    0.0000 C   0  0
   20.7659  -32.3772    0.0000 C   0  0
   21.2488  -31.7063    0.0000 C   0  0
   20.9049  -30.9509    0.0000 C   0  0
   20.0851  -30.8721    0.0000 C   0  0
   12.0991  -26.4390    0.0000 N   0  3
   12.1063  -27.2648    0.0000 O   0  0
   11.3805  -26.0325    0.0000 O   0  5
  1  2  1  0
  2  3  2  0
  3  4  1  0
  4  5  2  0
  5  6  1  0
  6  7  2  0
  7  2  1  0
  8  9  1  0
  9 10  1  0
 10 11  2  0
 11 12  1  0
 12  8  2  0
  5  8  1  0
 10 13  1  0
 13 14  1  0
 14 15  1  0
 14 16  2  0
  1 17  1  0
 17 18  2  0
 18 19  1  0
 19 20  2  0
 20 21  1  0
 21 22  2  0
 22 17  1  0
 23 24  2  0
 23 25  1  0
 20 23  1  0
 15 26  1  0
 26 27  2  0
 27 28  1  0
 28 29  2  0
 29 30  1  0
 30 31  2  0
 31 26  1  0
 32 33  2  0
 32 34  1  0
 22 32  1  0
M  CHG  4  23   1  25  -1  32   1  34  -1
M  END
> <From>
www.bindingDB.org

> <BindingDB Reactant_set_id>
50289291

> <Ligand InChI>
InChI=1S/C22H15N5O6S/c28-20(12-14-4-2-1-3-5-14)23-22-25-24-21(34-22)15-6-9-17(10-7-15)33-19-11-8-16(26(29)30)13-18(19)27(31)32/h1-11,13H,12H2,(H,23,25,28)

> <Ligand InChI Key>
YRBYORGBAIIWDT-UHFFFAOYSA-N

> <BindingDB MonomerID>
50057672

> <BindingDB Ligand Name>
CHEMBL3322857

> <Target Name Assigned by Curator or DataSource>
Protein-tyrosine phosphatase 1B

> <Target Source Organism According to Curator or DataSource>
Homo sapiens

> <IC50 (nM)>
2

> <Curation/DataSource>
ChEMBL

> <Article DOI>
10.1016/j.bmcl.2014.07.055

> <PMID>
25124112

> <Authors>
Li, Y; Yu, Y; Jin, K; Gao, L; Luo, T; Sheng, L; Shao, X; Li, J

> <Institution>
Liaoning Normal University

> <Link to Ligand in BindingDB>
http://www.bindingdb.org/bind/chemsearch/marvin/MolStructure.jsp?monomerid=50057672

> <Link to Ligand-Target Pair in BindingDB>
http://www.bindingdb.org/jsp/dbsearch/PrimarySearch_ki.jsp?energyterm=kJ/mole&tag=r21&monomerid=50057672&enzyme=Protein-tyrosine+phosphatase+1B&column=ki&startPg=0&Increment=50&submit=Search

> <PubChem CID>
118710359

> <PubChem SID>
103953694

> <ChEMBL ID of Ligand>
CHEMBL30894

> <ZINC ID of Ligand>
ZINC13761895

> <Number of Protein Chains in Target (>
1

> <BindingDB Target Chain Sequence>
MEMEKEFEQIDKSGSWAAIYQDIRHEASDFPCRVAKLPKNKNRNRYRDVSPFDHSRIKLHQEDNDYINASLIKMEEAQRSYILTQGPLPNTCGHFWEMVWEQKSRGVVMLNRVMEKGSLKCAQYWPQKEEKEMIFEDTNLKLTLISEDIKSYYTVRQLELENLTTQETREILHFHYTTWPDFGVPESPASFLNFLFKVRESGSLSPEHGPVVVHCSAGIGRSGTFCLADTCLLLMDKRKDPSSVDIKKVLLEMRKFRMGLIQTADQLRFSYLAVIEGAKFIMGDSSVQDQWKELSHEDLEPPPEHIPPPPRPPKRILEPHNGKCREFFPNHQWVKEETQEDKDCPIKEEKGSPLNAAPYGIESMSQDTEVRSRVVGGSLRGAQAASPAKGEPSLPEKDEDHALSYWKPFLVNMCVATVLTAGAYLCYRFLFNSNT

> <PDB ID(s) of Target Chain>
1BZJ,1G7G,1GFY,1JF7,1KAK,1KAV,1LQF,1NL9,1NNY,1NO6,1NZ7,1OEM,1OEO,1OES,1OET,1OEU,1OEV,1ONY,1ONZ,1PH0,1PXH,1PYN,1Q1M,1Q6J,1Q6M,1Q6N,1Q6P,1Q6S,1Q6T,1QXK,1SUG,1T48,1T49,1T4J,1WAX,1XBO,2AZR,2B07,2BGD,2BGE,2CM2,2CM3,2CM7,2CM8,2CMA,2CMB,2CMC,2CNE,2CNF,2CNG,2CNH,2CNI,2F6T,2F6V,2F6W,2F6Y,2F6Z,2F70,2F71,2FJN,2H4G,2H4K,2HB1,2HNP,2HNQ,2QBP,2QBQ,2QBR,2QBS,2VEU,2VEV,2VEW,2VEX,2VEY,2ZMM,2ZN7,3A5J,3CWE,3D9C,3EAX,3EB1,3EU0,3I7Z,3I80,3SME,4BJO,4I8N,4QBW,4Y14,5K9V,5K9W,5KA0,5KA1,5T19,6B90

> <UniProt (SwissProt) Recommended Name of Target Chain>
Tyrosine-protein phosphatase non-receptor type 1

> <UniProt (SwissProt) Entry Name of Target Chain>
PTN1_HUMAN

> <UniProt (SwissProt) Primary ID of Target Chain>
P18031

> <UniProt (SwissProt) Secondary ID(s) of Target Chain>
Q5TGD8,Q9BQV9,Q9NQQ4

$$$$

  SciTegic10241817252D

 28 29  0  0  0  0            999 V2000
    7.7194    0.2834    0.0000 C   0  0
    7.7182   -0.5440    0.0000 C   0  0
    8.4331   -0.9569    0.0000 C   0  0
    9.1495   -0.5435    0.0000 C   0  0
    9.1466    0.2870    0.0000 C   0  0
    8.4313    0.6961    0.0000 C   0  0
    9.8596    0.7022    0.0000 C   0  0
   10.5756    0.2924    0.0000 C   0  0
   11.2885    0.7076    0.0000 C   0  0
   12.0045    0.2978    0.0000 C   0  0
   11.2854    1.5326    0.0000 O   0  0
   12.0045   -0.5261    0.0000 C   0  0
   12.7197   -0.9358    0.0000 C   0  0
   13.4336   -0.5206    0.0000 C   0  0
   13.4278    0.3087    0.0000 C   0  0
   12.7120    0.7147    0.0000 C   0  0
   12.7052    1.5396    0.0000 O   0  0
   14.1392    0.7264    0.0000 C   0  0
   14.8567    0.3191    0.0000 C   0  0
   15.5681    0.7368    0.0000 C   0  0
   16.2856    0.3295    0.0000 C   0  0
   16.9970    0.7472    0.0000 C   0  0
   15.5621    1.5618    0.0000 C   0  0
   16.9910    1.5722    0.0000 C   0  0
   17.7025    1.9899    0.0000 C   0  0
   17.6964    2.8149    0.0000 C   0  0
   18.4199    1.5826    0.0000 C   0  0
   14.1501   -0.9294    0.0000 O   0  0
 13 14  2  0
  5  7  1  0
 14 15  1  0
  3  4  2  0
 15 16  2  0
 16 10  1  0
  7  8  2  0
 16 17  1  0
 15 18  1  0
  8  9  1  0
 18 19  1  0
  4  5  1  0
 19 20  2  0
  9 10  1  0
 20 21  1  0
  2  3  1  0
 21 22  1  0
  9 11  2  0
 20 23  1  0
  5  6  2  0
 22 24  1  0
 10 12  2  0
 24 25  2  0
  6  1  1  0
 25 26  1  0
 12 13  1  0
 25 27  1  0
  1  2  2  0
 14 28  1  0
M  END
> <From>
www.bindingDB.org

> <BindingDB Reactant_set_id>
50308832

> <Ligand InChI>
InChI=1S/C25H28O3/c1-18(2)8-7-9-19(3)12-14-21-24(27)17-15-22(25(21)28)23(26)16-13-20-10-5-4-6-11-20/h4-6,8,10-13,15-17,27-28H,7,9,14H2,1-3H3/b16-13+,19-12+

> <Ligand InChI Key>
JXLAPMLQWVGPBT-PWICXLLZSA-N

> <BindingDB MonomerID>
50069691

> <BindingDB Ligand Name>
XANTHOANGELOL::Xanthoangelol::Xanthoangerol

> <Target Name Assigned by Curator or DataSource>
Protein-tyrosine phosphatase 1B

> <Target Source Organism According to Curator or DataSource>
Homo sapiens

> <IC50 (nM)>
2

> <Curation/DataSource>
ChEMBL

> <Article DOI>
10.1016/j.bmcl.2015.04.003

> <PMID>
25891102

> <Authors>
Li, JL; Gao, LX; Meng, FW; Tang, CL; Zhang, RJ; Li, JY; Luo, C; Li, J; Zhao, WM

> <Institution>
Chinese Academy of Sciences

> <Link to Ligand in BindingDB>
http://www.bindingdb.org/bind/chemsearch/marvin/MolStructure.jsp?monomerid=50069691

> <Link to Ligand-Target Pair in BindingDB>
http://www.bindingdb.org/jsp/dbsearch/PrimarySearch_ki.jsp?energyterm=kJ/mole&tag=r21&monomerid=50069691&enzyme=Protein-tyrosine+phosphatase+1B&column=ki&startPg=0&Increment=50&submit=Search

> <PubChem CID>
44579769

> <PubChem SID>
103963727

> <ChEMBL ID of Ligand>
CHEMBL541108

> <ZINC ID of Ligand>
ZINC27746675

> <Number of Protein Chains in Target (>
1

> <BindingDB Target Chain Sequence>
MEMEKEFEQIDKSGSWAAIYQDIRHEASDFPCRVAKLPKNKNRNRYRDVSPFDHSRIKLHQEDNDYINASLIKMEEAQRSYILTQGPLPNTCGHFWEMVWEQKSRGVVMLNRVMEKGSLKCAQYWPQKEEKEMIFEDTNLKLTLISEDIKSYYTVRQLELENLTTQETREILHFHYTTWPDFGVPESPASFLNFLFKVRESGSLSPEHGPVVVHCSAGIGRSGTFCLADTCLLLMDKRKDPSSVDIKKVLLEMRKFRMGLIQTADQLRFSYLAVIEGAKFIMGDSSVQDQWKELSHEDLEPPPEHIPPPPRPPKRILEPHNGKCREFFPNHQWVKEETQEDKDCPIKEEKGSPLNAAPYGIESMSQDTEVRSRVVGGSLRGAQAASPAKGEPSLPEKDEDHALSYWKPFLVNMCVATVLTAGAYLCYRFLFNSNT

> <PDB ID(s) of Target Chain>
1BZJ,1G7G,1GFY,1JF7,1KAK,1KAV,1LQF,1NL9,1NNY,1NO6,1NZ7,1OEM,1OEO,1OES,1OET,1OEU,1OEV,1ONY,1ONZ,1PH0,1PXH,1PYN,1Q1M,1Q6J,1Q6M,1Q6N,1Q6P,1Q6S,1Q6T,1QXK,1SUG,1T48,1T49,1T4J,1WAX,1XBO,2AZR,2B07,2BGD,2BGE,2CM2,2CM3,2CM7,2CM8,2CMA,2CMB,2CMC,2CNE,2CNF,2CNG,2CNH,2CNI,2F6T,2F6V,2F6W,2F6Y,2F6Z,2F70,2F71,2FJN,2H4G,2H4K,2HB1,2HNP,2HNQ,2QBP,2QBQ,2QBR,2QBS,2VEU,2VEV,2VEW,2VEX,2VEY,2ZMM,2ZN7,3A5J,3CWE,3D9C,3EAX,3EB1,3EU0,3I7Z,3I80,3SME,4BJO,4I8N,4QBW,4Y14,5K9V,5K9W,5KA0,5KA1,5T19,6B90

> <UniProt (SwissProt) Recommended Name of Target Chain>
Tyrosine-protein phosphatase non-receptor type 1

> <UniProt (SwissProt) Entry Name of Target Chain>
PTN1_HUMAN

> <UniProt (SwissProt) Primary ID of Target Chain>
P18031

> <UniProt (SwissProt) Secondary ID(s) of Target Chain>
Q5TGD8,Q9BQV9,Q9NQQ4

$$$$

  SciTegic10241817252D

 30 32  0  0  0  0            999 V2000
    4.8193   -9.4622    0.0000 C   0  0
    4.8181  -10.2895    0.0000 C   0  0
    5.5329  -10.7024    0.0000 C   0  0
    5.5311   -9.0494    0.0000 C   0  0
    6.2464   -9.4585    0.0000 C   0  0
    6.2452  -10.2916    0.0000 C   0  0
    6.9621  -10.7068    0.0000 N   0  0
    7.6848  -10.2936    0.0000 C   0  0
    7.6860   -9.4606    0.0000 C   0  0
    6.9645   -9.0407    0.0000 C   0  0
    6.9645   -8.2158    0.0000 O   0  0
    8.4016   -9.0493    0.0000 C   0  0
    9.1150   -9.4635    0.0000 O   0  0
    8.4036   -8.2243    0.0000 O   0  0
    6.9636  -11.5319    0.0000 C   0  0
    4.1047   -9.0499    0.0000 I   0  0
    6.2499  -11.9456    0.0000 C   0  0
    5.5353  -11.5315    0.0000 C   0  0
    4.8220  -11.9446    0.0000 C   0  0
    4.8230  -12.7704    0.0000 C   0  0
    5.5432  -13.1815    0.0000 C   0  0
    6.2535  -12.7661    0.0000 C   0  0
    5.5472  -14.0087    0.0000 C   0  0
    6.2639  -14.4173    0.0000 O   0  0
    4.8349  -14.4248    0.0000 C   0  0
    4.8391  -15.2498    0.0000 C   0  0
    4.1267  -15.6658    0.0000 C   0  0
    4.1309  -16.4908    0.0000 O   0  0
    3.4102  -15.2570    0.0000 O   0  0
    5.5556  -15.6587    0.0000 O   0  0
  1  2  2  0
  2  3  1  0
  3  6  2  0
  5  4  2  0
  4  1  1  0
  5  6  1  0
  5 10  1  0
  6  7  1  0
  7  8  1  0
  8  9  2  0
  9 10  1  0
 10 11  2  0
 12 13  1  0
 12 14  2  0
  9 12  1  0
  7 15  1  0
  1 16  1  0
 15 17  1  0
 17 18  2  0
 18 19  1  0
 19 20  2  0
 20 21  1  0
 21 22  2  0
 22 17  1  0
 23 24  2  0
 21 23  1  0
 23 25  1  0
 25 26  2  0
 26 27  1  0
 27 28  2  0
 27 29  1  0
 26 30  1  0
M  END
> <From>
www.bindingDB.org

> <BindingDB Reactant_set_id>
50268125

> <Ligand InChI>
InChI=1S/C21H14INO7/c22-13-4-5-16-14(7-13)19(26)15(20(27)28)10-23(16)9-11-2-1-3-12(6-11)17(24)8-18(25)21(29)30/h1-8,10,25H,9H2,(H,27,28)(H,29,30)/b18-8-

> <Ligand InChI Key>
CLRRVVPSHPHWJD-LSCVHKIXSA-N

> <BindingDB MonomerID>
50045061

> <BindingDB Ligand Name>
CHEMBL3309790

> <Target Name Assigned by Curator or DataSource>
Protein-tyrosine phosphatase 1B

> <Target Source Organism According to Curator or DataSource>
Homo sapiens

> <IC50 (nM)>
2.4

> <Curation/DataSource>
ChEMBL

> <Article DOI>
10.1016/j.bmc.2014.05.028

> <PMID>
24906513

> <Authors>
Zhi, Y; Gao, LX; Jin, Y; Tang, CL; Li, JY; Li, J; Long, YQ

> <Institution>
Chinese Academy of Sciences

> <Link to Ligand in BindingDB>
http://www.bindingdb.org/bind/chemsearch/marvin/MolStructure.jsp?monomerid=50045061

> <Link to Ligand-Target Pair in BindingDB>
http://www.bindingdb.org/jsp/dbsearch/PrimarySearch_ki.jsp?energyterm=kJ/mole&tag=r21&monomerid=50045061&enzyme=Protein-tyrosine+phosphatase+1B&column=ki&startPg=0&Increment=50&submit=Search

> <PubChem CID>
118706102

> <PubChem SID>
103976161

> <ChEMBL ID of Ligand>
CHEMBL553647

> <ZINC ID of Ligand>
ZINC29410762

> <Number of Protein Chains in Target (>
1

> <BindingDB Target Chain Sequence>
MEMEKEFEQIDKSGSWAAIYQDIRHEASDFPCRVAKLPKNKNRNRYRDVSPFDHSRIKLHQEDNDYINASLIKMEEAQRSYILTQGPLPNTCGHFWEMVWEQKSRGVVMLNRVMEKGSLKCAQYWPQKEEKEMIFEDTNLKLTLISEDIKSYYTVRQLELENLTTQETREILHFHYTTWPDFGVPESPASFLNFLFKVRESGSLSPEHGPVVVHCSAGIGRSGTFCLADTCLLLMDKRKDPSSVDIKKVLLEMRKFRMGLIQTADQLRFSYLAVIEGAKFIMGDSSVQDQWKELSHEDLEPPPEHIPPPPRPPKRILEPHNGKCREFFPNHQWVKEETQEDKDCPIKEEKGSPLNAAPYGIESMSQDTEVRSRVVGGSLRGAQAASPAKGEPSLPEKDEDHALSYWKPFLVNMCVATVLTAGAYLCYRFLFNSNT

> <PDB ID(s) of Target Chain>
1BZJ,1G7G,1GFY,1JF7,1KAK,1KAV,1LQF,1NL9,1NNY,1NO6,1NZ7,1OEM,1OEO,1OES,1OET,1OEU,1OEV,1ONY,1ONZ,1PH0,1PXH,1PYN,1Q1M,1Q6J,1Q6M,1Q6N,1Q6P,1Q6S,1Q6T,1QXK,1SUG,1T48,1T49,1T4J,1WAX,1XBO,2AZR,2B07,2BGD,2BGE,2CM2,2CM3,2CM7,2CM8,2CMA,2CMB,2CMC,2CNE,2CNF,2CNG,2CNH,2CNI,2F6T,2F6V,2F6W,2F6Y,2F6Z,2F70,2F71,2FJN,2H4G,2H4K,2HB1,2HNP,2HNQ,2QBP,2QBQ,2QBR,2QBS,2VEU,2VEV,2VEW,2VEX,2VEY,2ZMM,2ZN7,3A5J,3CWE,3D9C,3EAX,3EB1,3EU0,3I7Z,3I80,3SME,4BJO,4I8N,4QBW,4Y14,5K9V,5K9W,5KA0,5KA1,5T19,6B90

> <UniProt (SwissProt) Recommended Name of Target Chain>
Tyrosine-protein phosphatase non-receptor type 1

> <UniProt (SwissProt) Entry Name of Target Chain>
PTN1_HUMAN

> <UniProt (SwissProt) Primary ID of Target Chain>
P18031

> <UniProt (SwissProt) Secondary ID(s) of Target Chain>
Q5TGD8,Q9BQV9,Q9NQQ4

$$$$
 
  SciTegic10241817252D

 16 18  0  0  0  0            999 V2000
   -2.5316  -15.6282    0.0000 C   0  0
   -2.5335  -13.9831    0.0000 C   0  0
   -1.8189  -14.3898    0.0000 C   0  0
   -1.8152  -15.2148    0.0000 C   0  0
   -1.1029  -15.6219    0.0000 O   0  0
   -0.3897  -15.2084    0.0000 C   0  0
   -0.3933  -14.3835    0.0000 C   0  0
   -1.1102  -13.9719    0.0000 C   0  0
   -3.2410  -15.2173    0.0000 C   0  0
   -3.2443  -14.3923    0.0000 C   0  0
   -4.0300  -14.1403    0.0000 C   0  0
   -4.5123  -14.8098    0.0000 C   0  0
   -4.0247  -15.4753    0.0000 O   0  0
    0.3226  -15.6167    0.0000 O   0  0
   -2.5355  -13.1621    0.0000 O   0  0
   -1.8257  -12.7499    0.0000 C   0  0
  5  6  1  0
  6  7  1  0
  7  8  2  0
  9 10  2  0
  9  1  1  0
  1  4  2  0
  3  2  2  0
  2 10  1  0
 10 11  1  0
 11 12  2  0
 12 13  1  0
 13  9  1  0
  3  4  1  0
  6 14  2  0
  3  8  1  0
  2 15  1  0
  4  5  1  0
 15 16  1  0
M  END
> <Name>
 

> <From>
www.bindingDB.org

> <BindingDB Reactant_set_id>
50308825

> <Ligand InChI>
InChI=1S/C12H8O4/c1-14-12-7-2-3-11(13)16-10(7)6-9-8(12)4-5-15-9/h2-6H,1H3

> <Ligand InChI Key>
BGEBZHIAGXMEMV-UHFFFAOYSA-N

> <BindingDB MonomerID>
50067880

> <BindingDB Ligand Name>
4-methoxy-7H-furo[3,2-g][1]benzopyran-7-one::4-methoxy-7H-furo[3,2-g]chromen-7-one::5-methoxypsoralen::5-methoxypsoralene::Bergaptene::CHEMBL24171::Heraclin::Majudin

> <Target Name Assigned by Curator or DataSource>
Protein-tyrosine phosphatase 1B

> <Target Source Organism According to Curator or DataSource>
Homo sapiens

> <IC50 (nM)>
2.5

> <Curation/DataSource>
ChEMBL

> <Article DOI>
10.1016/j.bmcl.2015.04.003

> <PMID>
25891102

> <Authors>
Li, JL; Gao, LX; Meng, FW; Tang, CL; Zhang, RJ; Li, JY; Luo, C; Li, J; Zhao, WM

> <Institution>
Chinese Academy of Sciences

> <Link to Ligand in BindingDB>
http://www.bindingdb.org/bind/chemsearch/marvin/MolStructure.jsp?monomerid=50067880

> <Link to Ligand-Target Pair in BindingDB>
http://www.bindingdb.org/jsp/dbsearch/PrimarySearch_ki.jsp?energyterm=kJ/mole&tag=r21&monomerid=50067880&enzyme=Protein-tyrosine+phosphatase+1B&column=ki&startPg=0&Increment=50&submit=Search

> <PubChem CID>
2355

> <PubChem SID>
103962306

> <ChEBI ID of Ligand>
18293

> <ChEMBL ID of Ligand>
CHEMBL24171

> <KEGG ID of Ligand>
C01557

> <ZINC ID of Ligand>
ZINC00057731

> <Number of Protein Chains in Target (>
1

> <BindingDB Target Chain Sequence>
MEMEKEFEQIDKSGSWAAIYQDIRHEASDFPCRVAKLPKNKNRNRYRDVSPFDHSRIKLHQEDNDYINASLIKMEEAQRSYILTQGPLPNTCGHFWEMVWEQKSRGVVMLNRVMEKGSLKCAQYWPQKEEKEMIFEDTNLKLTLISEDIKSYYTVRQLELENLTTQETREILHFHYTTWPDFGVPESPASFLNFLFKVRESGSLSPEHGPVVVHCSAGIGRSGTFCLADTCLLLMDKRKDPSSVDIKKVLLEMRKFRMGLIQTADQLRFSYLAVIEGAKFIMGDSSVQDQWKELSHEDLEPPPEHIPPPPRPPKRILEPHNGKCREFFPNHQWVKEETQEDKDCPIKEEKGSPLNAAPYGIESMSQDTEVRSRVVGGSLRGAQAASPAKGEPSLPEKDEDHALSYWKPFLVNMCVATVLTAGAYLCYRFLFNSNT

> <PDB ID(s) of Target Chain>
1BZJ,1G7G,1GFY,1JF7,1KAK,1KAV,1LQF,1NL9,1NNY,1NO6,1NZ7,1OEM,1OEO,1OES,1OET,1OEU,1OEV,1ONY,1ONZ,1PH0,1PXH,1PYN,1Q1M,1Q6J,1Q6M,1Q6N,1Q6P,1Q6S,1Q6T,1QXK,1SUG,1T48,1T49,1T4J,1WAX,1XBO,2AZR,2B07,2BGD,2BGE,2CM2,2CM3,2CM7,2CM8,2CMA,2CMB,2CMC,2CNE,2CNF,2CNG,2CNH,2CNI,2F6T,2F6V,2F6W,2F6Y,2F6Z,2F70,2F71,2FJN,2H4G,2H4K,2HB1,2HNP,2HNQ,2QBP,2QBQ,2QBR,2QBS,2VEU,2VEV,2VEW,2VEX,2VEY,2ZMM,2ZN7,3A5J,3CWE,3D9C,3EAX,3EB1,3EU0,3I7Z,3I80,3SME,4BJO,4I8N,4QBW,4Y14,5K9V,5K9W,5KA0,5KA1,5T19,6B90

> <UniProt (SwissProt) Recommended Name of Target Chain>
Tyrosine-protein phosphatase non-receptor type 1

> <UniProt (SwissProt) Entry Name of Target Chain>
PTN1_HUMAN

> <UniProt (SwissProt) Primary ID of Target Chain>
P18031

> <UniProt (SwissProt) Secondary ID(s) of Target Chain>
Q5TGD8,Q9BQV9,Q9NQQ4

$$$$

  SciTegic10241817252D

 25 26  0  0  0  0            999 V2000
    1.9652  -25.3666    0.0000 C   0  0
    1.9641  -26.1940    0.0000 C   0  0
    2.6789  -26.6069    0.0000 C   0  0
    3.3953  -26.1935    0.0000 C   0  0
    3.3925  -25.3630    0.0000 C   0  0
    2.6771  -24.9539    0.0000 C   0  0
    1.2507  -24.9543    0.0000 O   0  0
    4.1105  -26.6049    0.0000 C   0  0
    4.1117  -27.4299    0.0000 O   0  0
    4.8243  -26.1913    0.0000 C   0  0
    4.8230  -25.3663    0.0000 C   0  0
    5.5368  -24.9527    0.0000 C   0  0
    6.2495  -25.3651    0.0000 C   0  0
    6.9628  -24.9521    0.0000 C   0  0
    6.9620  -24.1262    0.0000 C   0  0
    6.2419  -23.7150    0.0000 C   0  0
    5.5315  -24.1303    0.0000 C   0  0
    2.6746  -24.1289    0.0000 C   0  0
    3.3879  -23.7142    0.0000 C   0  0
    3.3854  -22.8892    0.0000 C   0  0
    4.0986  -22.4746    0.0000 C   0  0
    2.6697  -22.4789    0.0000 C   0  0
    4.1054  -24.9478    0.0000 O   0  0
    1.2505  -24.1293    0.0000 C   0  0
    7.6753  -23.7117    0.0000 O   0  0
  6  1  2  0
 12 13  2  0
  1  2  1  0
 13 14  1  0
  1  7  1  0
 14 15  2  0
  3  4  1  0
 15 16  1  0
  4  8  1  0
 16 17  2  0
 17 12  1  0
  6 18  1  0
  8  9  2  0
 18 19  1  0
  4  5  2  0
 19 20  2  0
  8 10  1  0
 20 21  1  0
  2  3  2  0
 20 22  1  0
 10 11  2  0
  5 23  1  0
  5  6  1  0
  7 24  1  0
 11 12  1  0
 15 25  1  0
M  END
> <From>
www.bindingDB.org

> <BindingDB Reactant_set_id>
50308829

> <Ligand InChI>
InChI=1S/C21H22O4/c1-14(2)4-10-18-20(25-3)13-11-17(21(18)24)19(23)12-7-15-5-8-16(22)9-6-15/h4-9,11-13,22,24H,10H2,1-3H3/b12-7+

> <Ligand InChI Key>
XDKYBPGIBVMHHB-KPKJPENVSA-N

> <BindingDB MonomerID>
50352809

> <BindingDB Ligand Name>
CHEMBL458094

> <Target Name Assigned by Curator or DataSource>
Protein-tyrosine phosphatase 1B

> <Target Source Organism According to Curator or DataSource>
Homo sapiens

> <IC50 (nM)>
2.5

> <Curation/DataSource>
ChEMBL

> <Article DOI>
10.1016/j.bmcl.2015.04.003

> <PMID>
25891102

> <Authors>
Li, JL; Gao, LX; Meng, FW; Tang, CL; Zhang, RJ; Li, JY; Luo, C; Li, J; Zhao, WM

> <Institution>
Chinese Academy of Sciences

> <Link to Ligand in BindingDB>
http://www.bindingdb.org/bind/chemsearch/marvin/MolStructure.jsp?monomerid=50352809

> <Link to Ligand-Target Pair in BindingDB>
http://www.bindingdb.org/jsp/dbsearch/PrimarySearch_ki.jsp?energyterm=kJ/mole&tag=r21&monomerid=50352809&enzyme=Protein-tyrosine+phosphatase+1B&column=ki&startPg=0&Increment=50&submit=Search

> <PubChem CID>
6438503

> <PubChem SID>
136359495

> <ChEMBL ID of Ligand>
CHEMBL458094

> <ZINC ID of Ligand>
ZINC05158961

> <Number of Protein Chains in Target (>
1

> <BindingDB Target Chain Sequence>
MEMEKEFEQIDKSGSWAAIYQDIRHEASDFPCRVAKLPKNKNRNRYRDVSPFDHSRIKLHQEDNDYINASLIKMEEAQRSYILTQGPLPNTCGHFWEMVWEQKSRGVVMLNRVMEKGSLKCAQYWPQKEEKEMIFEDTNLKLTLISEDIKSYYTVRQLELENLTTQETREILHFHYTTWPDFGVPESPASFLNFLFKVRESGSLSPEHGPVVVHCSAGIGRSGTFCLADTCLLLMDKRKDPSSVDIKKVLLEMRKFRMGLIQTADQLRFSYLAVIEGAKFIMGDSSVQDQWKELSHEDLEPPPEHIPPPPRPPKRILEPHNGKCREFFPNHQWVKEETQEDKDCPIKEEKGSPLNAAPYGIESMSQDTEVRSRVVGGSLRGAQAASPAKGEPSLPEKDEDHALSYWKPFLVNMCVATVLTAGAYLCYRFLFNSNT

> <PDB ID(s) of Target Chain>
1BZJ,1G7G,1GFY,1JF7,1KAK,1KAV,1LQF,1NL9,1NNY,1NO6,1NZ7,1OEM,1OEO,1OES,1OET,1OEU,1OEV,1ONY,1ONZ,1PH0,1PXH,1PYN,1Q1M,1Q6J,1Q6M,1Q6N,1Q6P,1Q6S,1Q6T,1QXK,1SUG,1T48,1T49,1T4J,1WAX,1XBO,2AZR,2B07,2BGD,2BGE,2CM2,2CM3,2CM7,2CM8,2CMA,2CMB,2CMC,2CNE,2CNF,2CNG,2CNH,2CNI,2F6T,2F6V,2F6W,2F6Y,2F6Z,2F70,2F71,2FJN,2H4G,2H4K,2HB1,2HNP,2HNQ,2QBP,2QBQ,2QBR,2QBS,2VEU,2VEV,2VEW,2VEX,2VEY,2ZMM,2ZN7,3A5J,3CWE,3D9C,3EAX,3EB1,3EU0,3I7Z,3I80,3SME,4BJO,4I8N,4QBW,4Y14,5K9V,5K9W,5KA0,5KA1,5T19,6B90

> <UniProt (SwissProt) Recommended Name of Target Chain>
Tyrosine-protein phosphatase non-receptor type 1

> <UniProt (SwissProt) Entry Name of Target Chain>
PTN1_HUMAN

> <UniProt (SwissProt) Primary ID of Target Chain>
P18031

> <UniProt (SwissProt) Secondary ID(s) of Target Chain>
Q5TGD8,Q9BQV9,Q9NQQ4

$$$$

  SciTegic10241817252D

 39 42  0  0  0  0            999 V2000
    3.1123  -15.9370    0.0000 O   0  0
    3.8290  -16.3472    0.0000 C   0  0
    3.8287  -17.1706    0.0000 C   0  0
    4.5445  -17.5806    0.0000 C   0  0
    5.2591  -17.1650    0.0000 C   0  0
    5.2533  -16.3351    0.0000 C   0  0
    4.5370  -15.9288    0.0000 C   0  0
    5.9720  -17.5746    0.0000 C   0  0
    6.0625  -18.3953    0.0000 S   0  0
    6.8710  -18.5629    0.0000 C   0  0
    7.2803  -17.8456    0.0000 N   0  0
    6.7246  -17.2349    0.0000 N   0  0
    7.2107  -19.3155    0.0000 N   0  0
    8.0324  -19.3977    0.0000 C   0  0
    8.3721  -20.1502    0.0000 C   0  0
    8.5143  -18.7271    0.0000 O   0  0
    7.8873  -20.8162    0.0000 C   0  0
    8.2264  -21.5683    0.0000 C   0  0
    9.0488  -21.6510    0.0000 C   0  0
    9.5311  -20.9755    0.0000 C   0  0
    9.1895  -20.2261    0.0000 C   0  0
    3.1092  -15.1113    0.0000 C   0  0
    3.8246  -14.7005    0.0000 C   0  0
    3.8218  -13.8756    0.0000 C   0  0
    3.1045  -13.4647    0.0000 C   0  0
    2.3887  -13.8846    0.0000 C   0  0
    2.3950  -14.7082    0.0000 C   0  0
    3.0979  -12.6394    0.0000 N   0  3
    2.3813  -12.2290    0.0000 O   0  0
    3.8143  -12.2193    0.0000 O   0  5
   10.3531  -21.0547    0.0000 O   0  0
   10.6955  -21.8061    0.0000 C   0  0
    9.3896  -22.4032    0.0000 O   0  0
   10.2114  -22.4842    0.0000 C   0  0
    7.7441  -22.2386    0.0000 O   0  0
    6.9225  -22.1561    0.0000 C   0  0
    1.6821  -15.1304    0.0000 N   0  3
    1.6893  -15.9561    0.0000 O   0  0
    0.9635  -14.7238    0.0000 O   0  5
  1  2  1  0
  2  3  2  0
  3  4  1  0
  4  5  2  0
  5  6  1  0
  6  7  2  0
  7  2  1  0
  8  9  1  0
  9 10  1  0
 10 11  2  0
 11 12  1  0
 12  8  2  0
  5  8  1  0
 10 13  1  0
 13 14  1  0
 14 15  1  0
 14 16  2  0
 15 17  2  0
 17 18  1  0
 18 19  2  0
 19 20  1  0
 20 21  2  0
 21 15  1  0
  1 22  1  0
 22 23  2  0
 23 24  1  0
 24 25  2  0
 25 26  1  0
 26 27  2  0
 27 22  1  0
 28 29  2  0
 28 30  1  0
 25 28  1  0
 20 31  1  0
 31 32  1  0
 19 33  1  0
 33 34  1  0
 18 35  1  0
 35 36  1  0
 37 38  2  0
 37 39  1  0
 27 37  1  0
M  CHG  4  28   1  30  -1  37   1  39  -1
M  END
> <From>
www.bindingDB.org

> <BindingDB Reactant_set_id>
50289285

> <Ligand InChI>
InChI=1S/C24H19N5O9S/c1-35-19-10-14(11-20(36-2)21(19)37-3)22(30)25-24-27-26-23(39-24)13-4-7-16(8-5-13)38-18-9-6-15(28(31)32)12-17(18)29(33)34/h4-12H,1-3H3,(H,25,27,30)

> <Ligand InChI Key>
VJRAQVRWIUGSBX-UHFFFAOYSA-N

> <BindingDB MonomerID>
50057666

> <BindingDB Ligand Name>
CHEMBL3322850

> <Target Name Assigned by Curator or DataSource>
Protein-tyrosine phosphatase 1B

> <Target Source Organism According to Curator or DataSource>
Homo sapiens

> <IC50 (nM)>
2.9

> <Curation/DataSource>
ChEMBL

> <Article DOI>
10.1016/j.bmcl.2014.07.055

> <PMID>
25124112

> <Authors>
Li, Y; Yu, Y; Jin, K; Gao, L; Luo, T; Sheng, L; Shao, X; Li, J

> <Institution>
Liaoning Normal University

> <Link to Ligand in BindingDB>
http://www.bindingdb.org/bind/chemsearch/marvin/MolStructure.jsp?monomerid=50057666

> <Link to Ligand-Target Pair in BindingDB>
http://www.bindingdb.org/jsp/dbsearch/PrimarySearch_ki.jsp?energyterm=kJ/mole&tag=r21&monomerid=50057666&enzyme=Protein-tyrosine+phosphatase+1B&column=ki&startPg=0&Increment=50&submit=Search

> <PubChem CID>
118710352

> <PubChem SID>
103953688

> <ChEMBL ID of Ligand>
CHEMBL31725

> <ZINC ID of Ligand>
ZINC13761903

> <Number of Protein Chains in Target (>
1

> <BindingDB Target Chain Sequence>
MEMEKEFEQIDKSGSWAAIYQDIRHEASDFPCRVAKLPKNKNRNRYRDVSPFDHSRIKLHQEDNDYINASLIKMEEAQRSYILTQGPLPNTCGHFWEMVWEQKSRGVVMLNRVMEKGSLKCAQYWPQKEEKEMIFEDTNLKLTLISEDIKSYYTVRQLELENLTTQETREILHFHYTTWPDFGVPESPASFLNFLFKVRESGSLSPEHGPVVVHCSAGIGRSGTFCLADTCLLLMDKRKDPSSVDIKKVLLEMRKFRMGLIQTADQLRFSYLAVIEGAKFIMGDSSVQDQWKELSHEDLEPPPEHIPPPPRPPKRILEPHNGKCREFFPNHQWVKEETQEDKDCPIKEEKGSPLNAAPYGIESMSQDTEVRSRVVGGSLRGAQAASPAKGEPSLPEKDEDHALSYWKPFLVNMCVATVLTAGAYLCYRFLFNSNT

> <PDB ID(s) of Target Chain>
1BZJ,1G7G,1GFY,1JF7,1KAK,1KAV,1LQF,1NL9,1NNY,1NO6,1NZ7,1OEM,1OEO,1OES,1OET,1OEU,1OEV,1ONY,1ONZ,1PH0,1PXH,1PYN,1Q1M,1Q6J,1Q6M,1Q6N,1Q6P,1Q6S,1Q6T,1QXK,1SUG,1T48,1T49,1T4J,1WAX,1XBO,2AZR,2B07,2BGD,2BGE,2CM2,2CM3,2CM7,2CM8,2CMA,2CMB,2CMC,2CNE,2CNF,2CNG,2CNH,2CNI,2F6T,2F6V,2F6W,2F6Y,2F6Z,2F70,2F71,2FJN,2H4G,2H4K,2HB1,2HNP,2HNQ,2QBP,2QBQ,2QBR,2QBS,2VEU,2VEV,2VEW,2VEX,2VEY,2ZMM,2ZN7,3A5J,3CWE,3D9C,3EAX,3EB1,3EU0,3I7Z,3I80,3SME,4BJO,4I8N,4QBW,4Y14,5K9V,5K9W,5KA0,5KA1,5T19,6B90

> <UniProt (SwissProt) Recommended Name of Target Chain>
Tyrosine-protein phosphatase non-receptor type 1

> <UniProt (SwissProt) Entry Name of Target Chain>
PTN1_HUMAN

> <UniProt (SwissProt) Primary ID of Target Chain>
P18031

> <UniProt (SwissProt) Secondary ID(s) of Target Chain>
Q5TGD8,Q9BQV9,Q9NQQ4

$$$$
6
  SciTegic10241817252D

 47 52  0  0  0  0            999 V2000
   -3.2938    1.6563    0.0000 C   0  0
   -2.8813    0.9418    0.0000 C   0  0
   -2.0562    0.9418    0.0000 C   0  0
   -1.6437    1.6563    0.0000 C   0  0
   -2.0562    2.3707    0.0000 C   0  0
   -2.8813    2.3707    0.0000 C   0  0
    0.0063    1.6563    0.0000 C   0  0
    0.4188    0.9418    0.0000 C   0  0
    0.0813    0.1890    0.0000 C   0  0
    0.5645   -0.4797    0.0000 C   0  0
    1.3852   -0.3956    0.0000 C   0  0
    1.7227    0.3572    0.0000 C   0  0
    1.2395    1.0259    0.0000 C   0  0
    1.8684   -1.0643    0.0000 C   0  0
    1.6278   -1.8535    0.0000 C   0  0
    2.1910   -2.4564    0.0000 C   0  0
    2.9947   -2.2702    0.0000 C   0  0
    3.2352   -1.4810    0.0000 C   0  0
    2.6721   -0.8781    0.0000 C   0  0
   -0.8187    1.6563    0.0000 C   0  0
   -1.2312    0.9418    0.0000 C   0  0
   -1.2312    0.1168    0.0000 C   0  0
   -1.9367   -0.3110    0.0000 C   0  0
   -1.9189   -1.1358    0.0000 C   0  0
   -1.1957   -1.5328    0.0000 C   0  0
   -0.4903   -1.1051    0.0000 C   0  0
   -0.5080   -0.2803    0.0000 C   0  0
   -1.1779   -2.3576    0.0000 C   0  0
   -0.4547   -2.7547    0.0000 F   0  0
   -1.1602   -3.1825    0.0000 F   0  0
   -1.8834   -2.7854    0.0000 P   0  0
   -1.8656   -3.6102    0.0000 O   0  0
   -2.6065   -2.3884    0.0000 O   0  0
   -2.6802   -2.9990    0.0000 O   0  0
   -0.6052    2.4531    0.0000 N   0  0
    0.1582    2.7659    0.0000 N   0  0
    0.0967    3.5886    0.0000 N   0  0
   -0.7048    3.7843    0.0000 C   0  0
   -1.1385    3.0825    0.0000 C   0  0
   -2.3541    3.8338    0.0000 C   0  0
   -1.9632    3.1073    0.0000 C   0  0
   -1.0956    4.5108    0.0000 C   0  0
   -1.9203    4.5356    0.0000 C   0  0
    4.0389   -1.2947    0.0000 P   0  0
    4.3675   -0.5380    0.0000 O   0  0
    4.8639   -1.2947    0.0000 O   0  0
    4.4514   -2.0092    0.0000 O   0  0
  1  2  2  0
  1  6  1  0
  2  3  1  0
  3  4  2  0
  4  5  1  0
  5  6  2  0
  4 20  1  0
 20  7  1  0
  7  8  1  0
  8  9  2  0
  8 13  1  0
  9 10  1  0
 10 11  2  0
 11 12  1  0
 12 13  2  0
 11 14  1  0
 14 15  2  0
 14 19  1  0
 15 16  1  0
 16 17  2  0
 17 18  1  0
 18 19  2  0
 20 35  1  0
 20 21  1  0
 21 22  1  0
 27 22  2  0
 23 22  1  0
 23 24  2  0
 24 25  1  0
 25 26  2  0
 26 27  1  0
 25 28  1  0
 28 29  1  0
 28 31  1  0
 28 30  1  0
 31 33  1  0
 31 32  2  0
 31 34  1  0
 39 35  1  0
 35 36  1  0
 38 37  1  0
 36 37  2  0
 38 42  2  0
 38 39  1  0
 41 39  2  0
 40 41  1  0
 40 43  2  0
 42 43  1  0
 18 44  1  0
 44 47  1  0
 44 45  2  0
 44 46  1  0
M  END
> <Name>
6

> <From>
www.bindingDB.org

> <BindingDB Reactant_set_id>
50026909

> <Ligand InChI>
InChI=1S/C34H29F2N3O6P2/c35-34(36,47(43,44)45)29-19-15-25(16-20-29)23-33(28-8-2-1-3-9-28,39-32-12-5-4-11-31(32)37-38-39)22-24-13-17-26(18-14-24)27-7-6-10-30(21-27)46(40,41)42/h1-21H,22-23H2,(H2,40,41,42)(H2,43,44,45)

> <Ligand InChI Key>
DIRCLNUEXQQLRT-UHFFFAOYSA-N

> <BindingDB MonomerID>
13599

> <BindingDB Ligand Name>
3-{4-[2-(1H-1,2,3-benzotriazol-1-yl)-3-{4-[difluoro(phosphono)methyl]phenyl}-2-phenylpropyl]phenyl}benzene-1-phosphonic acid::Aryldifluoromethyl-Phosphonic Acid Inhibitor 6::CHEMBL269166

> <Target Name Assigned by Curator or DataSource>
Protein-tyrosine phosphatase 1B

> <Target Source Organism According to Curator or DataSource>
Homo sapiens

> <IC50 (nM)>
3

> <Curation/DataSource>
ChEMBL

> <Article DOI>
10.1016/j.bmcl.2003.11.076

> <PMID>
15013020

> <Authors>
Lau, CK; Bayly, CI; Gauthier, JY; Li, CS; Therien, M; Asante-Appiah, E; Cromlish, W; Boie, Y; Forghani, F; Desmarais, S; Wang, Q; Skorey, K; Waddleton, D; Payette, P; Ramachandran, C; Kennedy, BP; Scapin, G

> <Institution>
Merck Frosst Centre for Therapeutic Research

> <Link to Ligand in BindingDB>
http://www.bindingdb.org/bind/chemsearch/marvin/MolStructure.jsp?monomerid=13599

> <Link to Ligand-Target Pair in BindingDB>
http://www.bindingdb.org/jsp/dbsearch/PrimarySearch_ki.jsp?energyterm=kJ/mole&tag=r21&monomerid=13599&enzyme=Protein-tyrosine+phosphatase+1B&column=ki&startPg=0&Increment=50&submit=Search

> <Ligand HET ID in PDB>
213

> <PDB ID(s) for Ligand-Target Complex>
1Q6P

> <PubChem CID>
10168739

> <PubChem SID>
46513994

> <ChEMBL ID of Ligand>
CHEMBL269166

> <ZINC ID of Ligand>
ZINC25997980

> <Number of Protein Chains in Target (>
1

> <BindingDB Target Chain Sequence>
MEMEKEFEQIDKSGSWAAIYQDIRHEASDFPCRVAKLPKNKNRNRYRDVSPFDHSRIKLHQEDNDYINASLIKMEEAQRSYILTQGPLPNTCGHFWEMVWEQKSRGVVMLNRVMEKGSLKCAQYWPQKEEKEMIFEDTNLKLTLISEDIKSYYTVRQLELENLTTQETREILHFHYTTWPDFGVPESPASFLNFLFKVRESGSLSPEHGPVVVHCSAGIGRSGTFCLADTCLLLMDKRKDPSSVDIKKVLLEMRKFRMGLIQTADQLRFSYLAVIEGAKFIMGDSSVQDQWKELSHEDLEPPPEHIPPPPRPPKRILEPHNGKCREFFPNHQWVKEETQEDKDCPIKEEKGSPLNAAPYGIESMSQDTEVRSRVVGGSLRGAQAASPAKGEPSLPEKDEDHALSYWKPFLVNMCVATVLTAGAYLCYRFLFNSNT

> <PDB ID(s) of Target Chain>
1BZJ,1G7G,1GFY,1JF7,1KAK,1KAV,1LQF,1NL9,1NNY,1NO6,1NZ7,1OEM,1OEO,1OES,1OET,1OEU,1OEV,1ONY,1ONZ,1PH0,1PXH,1PYN,1Q1M,1Q6J,1Q6M,1Q6N,1Q6P,1Q6S,1Q6T,1QXK,1SUG,1T48,1T49,1T4J,1WAX,1XBO,2AZR,2B07,2BGD,2BGE,2CM2,2CM3,2CM7,2CM8,2CMA,2CMB,2CMC,2CNE,2CNF,2CNG,2CNH,2CNI,2F6T,2F6V,2F6W,2F6Y,2F6Z,2F70,2F71,2FJN,2H4G,2H4K,2HB1,2HNP,2HNQ,2QBP,2QBQ,2QBR,2QBS,2VEU,2VEV,2VEW,2VEX,2VEY,2ZMM,2ZN7,3A5J,3CWE,3D9C,3EAX,3EB1,3EU0,3I7Z,3I80,3SME,4BJO,4I8N,4QBW,4Y14,5K9V,5K9W,5KA0,5KA1,5T19,6B90

> <UniProt (SwissProt) Recommended Name of Target Chain>
Tyrosine-protein phosphatase non-receptor type 1

> <UniProt (SwissProt) Entry Name of Target Chain>
PTN1_HUMAN

> <UniProt (SwissProt) Primary ID of Target Chain>
P18031

> <UniProt (SwissProt) Secondary ID(s) of Target Chain>
Q5TGD8,Q9BQV9,Q9NQQ4

$$$$

  SciTegic10241817252D

 56 62  0  0  0  0            999 V2000
   -2.5634    1.6500    0.0000 C   0  0
   -3.2779    1.2375    0.0000 C   0  0
   -3.2779    0.4125    0.0000 C   0  0
   -2.5634    0.0000    0.0000 C   0  0
   -1.8489    0.4125    0.0000 C   0  0
   -1.8489    1.2375    0.0000 C   0  0
   -1.1344    0.0000    0.0000 C   0  0
   -0.4200    0.4125    0.0000 C   0  0
   -0.4200    1.2375    0.0000 C   0  0
   -1.1344    1.6500    0.0000 C   0  0
    0.2945    1.6500    0.0000 Br  0  0
    0.2945   -0.0001    0.0000 C   0  0
    1.0090    0.4124    0.0000 F   0  0
    0.2945   -0.8251    0.0000 P   0  0
    1.0090   -0.4126    0.0000 F   0  0
   -3.9923    0.0000    0.0000 C   0  0
   -4.7068    0.4125    0.0000 C   0  0
   -5.4213    0.0000    0.0000 C   0  0
   -4.7068    1.2375    0.0000 N   0  0
   -4.0394    1.7224    0.0000 N   0  0
   -4.2943    2.5070    0.0000 N   0  0
   -5.1193    2.5070    0.0000 C   0  0
   -5.3742    1.7224    0.0000 C   0  0
   -6.1812    1.5509    0.0000 C   0  0
   -6.7333    2.1639    0.0000 C   0  0
   -6.4783    2.9486    0.0000 C   0  0
   -5.6714    3.1201    0.0000 C   0  0
   -5.4213   -0.8250    0.0000 C   0  0
   -6.1357    0.4125    0.0000 O   0  0
   -6.1357   -1.2375    0.0000 C   0  0
   -6.1357   -2.0625    0.0000 C   0  0
   -5.4213   -2.4750    0.0000 C   0  0
   -4.7068   -2.0625    0.0000 C   0  0
   -4.7068   -1.2375    0.0000 C   0  0
    1.0090   -1.2376    0.0000 O   0  0
   -0.4200   -1.2375    0.0000 O   0  0
    0.2945   -1.6501    0.0000 O   0  0
   -4.7068   -0.4125    0.0000 C   0  0
   -3.9923   -0.8250    0.0000 C   0  0
   -3.9923   -1.6500    0.0000 N   0  0
   -3.2778   -2.0625    0.0000 C   0  0
   -2.5634   -1.6500    0.0000 C   0  0
   -2.5634   -0.8250    0.0000 C   0  0
   -3.2779   -0.4125    0.0000 C   0  0
   -3.2778   -2.8875    0.0000 C   0  0
   -2.5633   -3.3000    0.0000 C   0  0
   -1.8488   -2.8875    0.0000 C   0  0
   -1.8489   -2.0625    0.0000 C   0  0
   -1.1344   -3.2999    0.0000 Br  0  0
   -2.5633   -4.1250    0.0000 C   0  0
   -1.8488   -4.5375    0.0000 P   0  0
   -3.2777   -4.5375    0.0000 F   0  0
   -2.5632   -4.9500    0.0000 F   0  0
   -1.8488   -5.3625    0.0000 O   0  0
   -1.1343   -4.1250    0.0000 O   0  0
   -1.1343   -4.9500    0.0000 O   0  0
  1  2  1  0
  1  6  2  0
  2  3  2  0
  3  4  1  0
  4  5  2  0
  5  7  1  0
  6  5  1  0
  6 10  1  0
  7  8  2  0
  8  9  1  0
  9 10  2  0
  9 11  1  0
  8 12  1  0
 12 13  1  0
 12 14  1  0
 12 15  1  0
  3 16  1  0
 16 17  1  0
 17 18  1  0
 17 19  1  0
 19 20  1  0
 19 23  1  0
 20 21  2  0
 21 22  1  0
 22 27  2  0
 22 23  1  0
 23 24  2  0
 24 25  1  0
 25 26  2  0
 26 27  1  0
 18 28  1  0
 18 29  2  0
 28 30  2  0
 28 34  1  0
 30 31  1  0
 31 32  2  0
 32 33  1  0
 33 34  2  0
 14 35  1  0
 14 36  2  0
 14 37  1  0
 17 38  1  0
 38 39  1  0
 39 40  1  0
 39 44  2  0
 40 41  2  0
 42 43  2  0
 43 44  1  0
 41 45  1  0
 41 42  1  0
 42 48  1  0
 45 46  2  0
 46 47  1  0
 47 48  2  0
 47 49  1  0
 46 50  1  0
 50 51  1  0
 50 52  1  0
 50 53  1  0
 51 54  1  0
 51 55  2  0
 51 56  1  0
M  END
> <From>
www.bindingDB.org

> <BindingDB Reactant_set_id>
253403

> <Ligand InChI>
InChI=1S/C37H26Br2F4N4O7P2/c38-29-16-23-11-10-21(14-25(23)15-27(29)36(40,41)55(49,50)51)19-35(34(48)22-6-2-1-3-7-22,47-33-9-5-4-8-31(33)45-46-47)20-26-13-12-24-17-30(39)28(18-32(24)44-26)37(42,43)56(52,53)54/h1-18H,19-20H2,(H2,49,50,51)(H2,52,53,54)

> <Ligand InChI Key>
ZKLIYMLNDGMWPU-UHFFFAOYSA-N

> <BindingDB MonomerID>
124215

> <BindingDB Ligand Name>
({7-[2-(1H-1,2,3-benzotriazol-1-yl)-2-({6-bromo-7-[difluoro(phosphono)methyl]quinolin-2-yl}methyl)-3-oxo-3-phenylpropyl]-3-bromonaphthalen-2-yl}difluoromethyl)phosphonic acid (10i)

> <Target Name Assigned by Curator or DataSource>
Protein-tyrosine phosphatase 1B

> <Target Source Organism According to Curator or DataSource>
Homo sapiens

> <IC50 (nM)>
3

> <Curation/DataSource>
Curated from the literature by BindingDB

> <Article DOI>
10.1002/cmdc.201100077

> <PMID>
21506278

> <Authors>
Patel, D; Jain, M; Shah, SR; Bahekar, R; Jadav, P; Darji, B; Siriki, Y; Bandyopadhyay, D; Joharapurkar, A; Kshirsagar, S; Patel, H; Shaikh, M; Sairam, KV; Patel, P

> <Institution>
Zydus Research Centre

> <Link to Ligand in BindingDB>
http://www.bindingdb.org/bind/chemsearch/marvin/MolStructure.jsp?monomerid=124215

> <Link to Ligand-Target Pair in BindingDB>
http://www.bindingdb.org/jsp/dbsearch/PrimarySearch_ki.jsp?energyterm=kJ/mole&tag=r21&monomerid=124215&enzyme=Protein-tyrosine+phosphatase+1B&column=ki&startPg=0&Increment=50&submit=Search

> <PubChem CID>
86766289

> <PubChem SID>
225150607

> <Number of Protein Chains in Target (>
1

> <BindingDB Target Chain Sequence>
MEMEKEFEQIDKSGSWAAIYQDIRHEASDFPCRVAKLPKNKNRNRYRDVSPFDHSRIKLHQEDNDYINASLIKMEEAQRSYILTQGPLPNTCGHFWEMVWEQKSRGVVMLNRVMEKGSLKCAQYWPQKEEKEMIFEDTNLKLTLISEDIKSYYTVRQLELENLTTQETREILHFHYTTWPDFGVPESPASFLNFLFKVRESGSLSPEHGPVVVHCSAGIGRSGTFCLADTCLLLMDKRKDPSSVDIKKVLLEMRKFRMGLIQTADQLRFSYLAVIEGAKFIMGDSSVQDQWKELSHEDLEPPPEHIPPPPRPPKRILEPHNGKCREFFPNHQWVKEETQEDKDCPIKEEKGSPLNAAPYGIESMSQDTEVRSRVVGGSLRGAQAASPAKGEPSLPEKDEDHALSYWKPFLVNMCVATVLTAGAYLCYRFLFNSNT

> <PDB ID(s) of Target Chain>
1BZJ,1G7G,1GFY,1JF7,1KAK,1KAV,1LQF,1NL9,1NNY,1NO6,1NZ7,1OEM,1OEO,1OES,1OET,1OEU,1OEV,1ONY,1ONZ,1PH0,1PXH,1PYN,1Q1M,1Q6J,1Q6M,1Q6N,1Q6P,1Q6S,1Q6T,1QXK,1SUG,1T48,1T49,1T4J,1WAX,1XBO,2AZR,2B07,2BGD,2BGE,2CM2,2CM3,2CM7,2CM8,2CMA,2CMB,2CMC,2CNE,2CNF,2CNG,2CNH,2CNI,2F6T,2F6V,2F6W,2F6Y,2F6Z,2F70,2F71,2FJN,2H4G,2H4K,2HB1,2HNP,2HNQ,2QBP,2QBQ,2QBR,2QBS,2VEU,2VEV,2VEW,2VEX,2VEY,2ZMM,2ZN7,3A5J,3CWE,3D9C,3EAX,3EB1,3EU0,3I7Z,3I80,3SME,4BJO,4I8N,4QBW,4Y14,5K9V,5K9W,5KA0,5KA1,5T19,6B90

> <UniProt (SwissProt) Recommended Name of Target Chain>
Tyrosine-protein phosphatase non-receptor type 1

> <UniProt (SwissProt) Entry Name of Target Chain>
PTN1_HUMAN

> <UniProt (SwissProt) Primary ID of Target Chain>
P18031

> <UniProt (SwissProt) Secondary ID(s) of Target Chain>
Q5TGD8,Q9BQV9,Q9NQQ4

$$$$

  SciTegic10241817252D

 32 34  0  0  0  0            999 V2000
   26.8061   -1.8457    0.0000 C   0  0
   26.8049   -2.6731    0.0000 C   0  0
   27.5198   -3.0859    0.0000 C   0  0
   27.5180   -1.4330    0.0000 C   0  0
   28.2333   -1.8421    0.0000 C   0  0
   28.2321   -2.6751    0.0000 C   0  0
   28.9490   -3.0905    0.0000 N   0  0
   29.6716   -2.6773    0.0000 C   0  0
   29.6728   -1.8442    0.0000 C   0  0
   28.9514   -1.4243    0.0000 C   0  0
   28.9514   -0.5994    0.0000 O   0  0
   30.3884   -1.4328    0.0000 C   0  0
   31.1019   -1.8470    0.0000 O   0  0
   30.3905   -0.6078    0.0000 O   0  0
   28.9504   -3.9154    0.0000 C   0  0
   26.0916   -1.4334    0.0000 I   0  0
   28.2367   -4.3291    0.0000 C   0  0
   27.5221   -3.9150    0.0000 C   0  0
   26.8089   -4.3281    0.0000 C   0  0
   26.8099   -5.1540    0.0000 C   0  0
   27.5301   -5.5650    0.0000 C   0  0
   28.2404   -5.1496    0.0000 C   0  0
   27.5341   -6.3922    0.0000 C   0  0
   28.2508   -6.8010    0.0000 O   0  0
   26.8218   -6.8083    0.0000 C   0  0
   26.8259   -7.6333    0.0000 C   0  0
   26.1136   -8.0495    0.0000 C   0  0
   26.1177   -8.8743    0.0000 O   0  0
   25.3970   -7.6406    0.0000 O   0  0
   25.3929   -6.8156    0.0000 C   0  0
   24.6763   -6.4068    0.0000 C   0  0
   27.5425   -8.0422    0.0000 O   0  0
  1  2  2  0
  2  3  1  0
  3  6  2  0
  5  4  2  0
  4  1  1  0
  5  6  1  0
  5 10  1  0
  6  7  1  0
  7  8  1  0
  8  9  2  0
  9 10  1  0
 10 11  2  0
 12 13  1  0
 12 14  2  0
  9 12  1  0
  7 15  1  0
  1 16  1  0
 15 17  1  0
 17 18  2  0
 18 19  1  0
 19 20  2  0
 20 21  1  0
 21 22  2  0
 22 17  1  0
 23 24  2  0
 21 23  1  0
 23 25  1  0
 25 26  2  0
 26 27  1  0
 27 28  2  0
 27 29  1  0
 29 30  1  0
 30 31  1  0
 26 32  1  0
M  END
> <From>
www.bindingDB.org

> <BindingDB Reactant_set_id>
50268124

> <Ligand InChI>
InChI=1S/C23H18INO7/c1-2-32-23(31)20(27)10-19(26)14-5-3-4-13(8-14)11-25-12-17(22(29)30)21(28)16-9-15(24)6-7-18(16)25/h3-10,12,27H,2,11H2,1H3,(H,29,30)/b20-10-

> <Ligand InChI Key>
SAZMPEZPJXSHPU-JMIUGGIZSA-N

> <BindingDB MonomerID>
50045060

> <BindingDB Ligand Name>
CHEMBL3309789

> <Target Name Assigned by Curator or DataSource>
Protein-tyrosine phosphatase 1B

> <Target Source Organism According to Curator or DataSource>
Homo sapiens

> <IC50 (nM)>
3.1

> <Curation/DataSource>
ChEMBL

> <Article DOI>
10.1016/j.bmc.2014.05.028

> <PMID>
24906513

> <Authors>
Zhi, Y; Gao, LX; Jin, Y; Tang, CL; Li, JY; Li, J; Long, YQ

> <Institution>
Chinese Academy of Sciences

> <Link to Ligand in BindingDB>
http://www.bindingdb.org/bind/chemsearch/marvin/MolStructure.jsp?monomerid=50045060

> <Link to Ligand-Target Pair in BindingDB>
http://www.bindingdb.org/jsp/dbsearch/PrimarySearch_ki.jsp?energyterm=kJ/mole&tag=r21&monomerid=50045060&enzyme=Protein-tyrosine+phosphatase+1B&column=ki&startPg=0&Increment=50&submit=Search

> <PubChem CID>
118706101

> <PubChem SID>
103976160

> <ChEMBL ID of Ligand>
CHEMBL297274

> <ZINC ID of Ligand>
ZINC13827872

> <Number of Protein Chains in Target (>
1

> <BindingDB Target Chain Sequence>
MEMEKEFEQIDKSGSWAAIYQDIRHEASDFPCRVAKLPKNKNRNRYRDVSPFDHSRIKLHQEDNDYINASLIKMEEAQRSYILTQGPLPNTCGHFWEMVWEQKSRGVVMLNRVMEKGSLKCAQYWPQKEEKEMIFEDTNLKLTLISEDIKSYYTVRQLELENLTTQETREILHFHYTTWPDFGVPESPASFLNFLFKVRESGSLSPEHGPVVVHCSAGIGRSGTFCLADTCLLLMDKRKDPSSVDIKKVLLEMRKFRMGLIQTADQLRFSYLAVIEGAKFIMGDSSVQDQWKELSHEDLEPPPEHIPPPPRPPKRILEPHNGKCREFFPNHQWVKEETQEDKDCPIKEEKGSPLNAAPYGIESMSQDTEVRSRVVGGSLRGAQAASPAKGEPSLPEKDEDHALSYWKPFLVNMCVATVLTAGAYLCYRFLFNSNT

> <PDB ID(s) of Target Chain>
1BZJ,1G7G,1GFY,1JF7,1KAK,1KAV,1LQF,1NL9,1NNY,1NO6,1NZ7,1OEM,1OEO,1OES,1OET,1OEU,1OEV,1ONY,1ONZ,1PH0,1PXH,1PYN,1Q1M,1Q6J,1Q6M,1Q6N,1Q6P,1Q6S,1Q6T,1QXK,1SUG,1T48,1T49,1T4J,1WAX,1XBO,2AZR,2B07,2BGD,2BGE,2CM2,2CM3,2CM7,2CM8,2CMA,2CMB,2CMC,2CNE,2CNF,2CNG,2CNH,2CNI,2F6T,2F6V,2F6W,2F6Y,2F6Z,2F70,2F71,2FJN,2H4G,2H4K,2HB1,2HNP,2HNQ,2QBP,2QBQ,2QBR,2QBS,2VEU,2VEV,2VEW,2VEX,2VEY,2ZMM,2ZN7,3A5J,3CWE,3D9C,3EAX,3EB1,3EU0,3I7Z,3I80,3SME,4BJO,4I8N,4QBW,4Y14,5K9V,5K9W,5KA0,5KA1,5T19,6B90

> <UniProt (SwissProt) Recommended Name of Target Chain>
Tyrosine-protein phosphatase non-receptor type 1

> <UniProt (SwissProt) Entry Name of Target Chain>
PTN1_HUMAN

> <UniProt (SwissProt) Primary ID of Target Chain>
P18031

> <UniProt (SwissProt) Secondary ID(s) of Target Chain>
Q5TGD8,Q9BQV9,Q9NQQ4

$$$$

  SciTegic10241817252D

 38 42  0  0  0  0            999 V2000
   22.0954  -25.5908    0.0000 O   0  0
   22.8120  -26.0010    0.0000 C   0  0
   22.8118  -26.8243    0.0000 C   0  0
   23.5276  -27.2344    0.0000 C   0  0
   24.2420  -26.8187    0.0000 C   0  0
   24.2363  -25.9888    0.0000 C   0  0
   23.5199  -25.5825    0.0000 C   0  0
   24.9549  -27.2283    0.0000 C   0  0
   25.0454  -28.0490    0.0000 S   0  0
   25.8540  -28.2166    0.0000 C   0  0
   26.2632  -27.4994    0.0000 N   0  0
   25.7075  -26.8887    0.0000 N   0  0
   26.1937  -28.9691    0.0000 N   0  0
   27.0153  -29.0513    0.0000 C   0  0
   27.3550  -29.8039    0.0000 C   0  0
   27.4972  -28.3809    0.0000 O   0  0
   22.0922  -24.7650    0.0000 C   0  0
   22.8075  -24.3544    0.0000 C   0  0
   22.8048  -23.5294    0.0000 C   0  0
   22.0876  -23.1184    0.0000 C   0  0
   21.3717  -23.5384    0.0000 C   0  0
   21.3780  -24.3620    0.0000 C   0  0
   22.0808  -22.2932    0.0000 N   0  3
   21.3643  -21.8828    0.0000 O   0  0
   22.7973  -21.8731    0.0000 O   0  5
   28.1765  -29.8860    0.0000 C   0  0
   28.5114  -30.6400    0.0000 C   0  0
   29.3323  -30.7224    0.0000 C   0  0
   29.8151  -30.0515    0.0000 C   0  0
   28.6513  -29.2173    0.0000 C   0  0
   29.4693  -29.2983    0.0000 C   0  0
   29.9464  -28.6314    0.0000 C   0  0
   29.6069  -27.8832    0.0000 C   0  0
   28.7855  -27.8058    0.0000 C   0  0
   28.3119  -28.4736    0.0000 C   0  0
   20.6651  -24.7841    0.0000 N   0  3
   20.6724  -25.6099    0.0000 O   0  0
   19.9465  -24.3775    0.0000 O   0  5
  1  2  1  0
  2  3  2  0
  3  4  1  0
  4  5  2  0
  5  6  1  0
  6  7  2  0
  7  2  1  0
  8  9  1  0
  9 10  1  0
 10 11  2  0
 11 12  1  0
 12  8  2  0
  5  8  1  0
 10 13  1  0
 13 14  1  0
 14 15  1  0
 14 16  2  0
  1 17  1  0
 17 18  2  0
 18 19  1  0
 19 20  2  0
 20 21  1  0
 21 22  2  0
 22 17  1  0
 23 24  2  0
 23 25  1  0
 20 23  1  0
 15 26  1  0
 26 27  2  0
 27 28  1  0
 28 29  2  0
 29 31  1  0
 30 26  1  0
 30 31  1  0
 31 32  2  0
 32 33  1  0
 33 34  2  0
 34 35  1  0
 35 30  2  0
 36 37  2  0
 36 38  1  0
 22 36  1  0
M  CHG  4  23   1  25  -1  36   1  38  -1
M  END
> <From>
www.bindingDB.org

> <BindingDB Reactant_set_id>
50289292

> <Ligand InChI>
InChI=1S/C26H17N5O6S/c32-24(14-18-6-3-5-16-4-1-2-7-21(16)18)27-26-29-28-25(38-26)17-8-11-20(12-9-17)37-23-13-10-19(30(33)34)15-22(23)31(35)36/h1-13,15H,14H2,(H,27,29,32)

> <Ligand InChI Key>
PNVLWWYXNVWBBE-UHFFFAOYSA-N

> <BindingDB MonomerID>
50057673

> <BindingDB Ligand Name>
CHEMBL3322858

> <Target Name Assigned by Curator or DataSource>
Protein-tyrosine phosphatase 1B

> <Target Source Organism According to Curator or DataSource>
Homo sapiens

> <IC50 (nM)>
3.2

> <Curation/DataSource>
ChEMBL

> <Article DOI>
10.1016/j.bmcl.2014.07.055

> <PMID>
25124112

> <Authors>
Li, Y; Yu, Y; Jin, K; Gao, L; Luo, T; Sheng, L; Shao, X; Li, J

> <Institution>
Liaoning Normal University

> <Link to Ligand in BindingDB>
http://www.bindingdb.org/bind/chemsearch/marvin/MolStructure.jsp?monomerid=50057673

> <Link to Ligand-Target Pair in BindingDB>
http://www.bindingdb.org/jsp/dbsearch/PrimarySearch_ki.jsp?energyterm=kJ/mole&tag=r21&monomerid=50057673&enzyme=Protein-tyrosine+phosphatase+1B&column=ki&startPg=0&Increment=50&submit=Search

> <PubChem CID>
118710360

> <PubChem SID>
103953695

> <ChEMBL ID of Ligand>
CHEMBL281045

> <ZINC ID of Ligand>
ZINC13761902

> <Number of Protein Chains in Target (>
1

> <BindingDB Target Chain Sequence>
MEMEKEFEQIDKSGSWAAIYQDIRHEASDFPCRVAKLPKNKNRNRYRDVSPFDHSRIKLHQEDNDYINASLIKMEEAQRSYILTQGPLPNTCGHFWEMVWEQKSRGVVMLNRVMEKGSLKCAQYWPQKEEKEMIFEDTNLKLTLISEDIKSYYTVRQLELENLTTQETREILHFHYTTWPDFGVPESPASFLNFLFKVRESGSLSPEHGPVVVHCSAGIGRSGTFCLADTCLLLMDKRKDPSSVDIKKVLLEMRKFRMGLIQTADQLRFSYLAVIEGAKFIMGDSSVQDQWKELSHEDLEPPPEHIPPPPRPPKRILEPHNGKCREFFPNHQWVKEETQEDKDCPIKEEKGSPLNAAPYGIESMSQDTEVRSRVVGGSLRGAQAASPAKGEPSLPEKDEDHALSYWKPFLVNMCVATVLTAGAYLCYRFLFNSNT

> <PDB ID(s) of Target Chain>
1BZJ,1G7G,1GFY,1JF7,1KAK,1KAV,1LQF,1NL9,1NNY,1NO6,1NZ7,1OEM,1OEO,1OES,1OET,1OEU,1OEV,1ONY,1ONZ,1PH0,1PXH,1PYN,1Q1M,1Q6J,1Q6M,1Q6N,1Q6P,1Q6S,1Q6T,1QXK,1SUG,1T48,1T49,1T4J,1WAX,1XBO,2AZR,2B07,2BGD,2BGE,2CM2,2CM3,2CM7,2CM8,2CMA,2CMB,2CMC,2CNE,2CNF,2CNG,2CNH,2CNI,2F6T,2F6V,2F6W,2F6Y,2F6Z,2F70,2F71,2FJN,2H4G,2H4K,2HB1,2HNP,2HNQ,2QBP,2QBQ,2QBR,2QBS,2VEU,2VEV,2VEW,2VEX,2VEY,2ZMM,2ZN7,3A5J,3CWE,3D9C,3EAX,3EB1,3EU0,3I7Z,3I80,3SME,4BJO,4I8N,4QBW,4Y14,5K9V,5K9W,5KA0,5KA1,5T19,6B90

> <UniProt (SwissProt) Recommended Name of Target Chain>
Tyrosine-protein phosphatase non-receptor type 1

> <UniProt (SwissProt) Entry Name of Target Chain>
PTN1_HUMAN

> <UniProt (SwissProt) Primary ID of Target Chain>
P18031

> <UniProt (SwissProt) Secondary ID(s) of Target Chain>
Q5TGD8,Q9BQV9,Q9NQQ4

$$$$

  SciTegic10241817252D

 34 37  0  0  0  0            999 V2000
    8.4925  -15.8127    0.0000 O   0  0
    9.2093  -16.2229    0.0000 C   0  0
    9.2090  -17.0464    0.0000 C   0  0
    9.9248  -17.4564    0.0000 C   0  0
   10.6394  -17.0408    0.0000 C   0  0
   10.6337  -16.2108    0.0000 C   0  0
    9.9172  -15.8044    0.0000 C   0  0
   11.3524  -17.4504    0.0000 C   0  0
   11.4429  -18.2711    0.0000 S   0  0
   12.2515  -18.4387    0.0000 C   0  0
   12.6608  -17.7214    0.0000 N   0  0
   12.1050  -17.1106    0.0000 N   0  0
   12.5912  -19.1914    0.0000 N   0  0
   13.4129  -19.2735    0.0000 C   0  0
   13.7526  -20.0262    0.0000 C   0  0
   13.8949  -18.6030    0.0000 O   0  0
   13.2679  -20.6922    0.0000 C   0  0
   13.6069  -21.4443    0.0000 C   0  0
   14.4295  -21.5270    0.0000 C   0  0
   14.9118  -20.8514    0.0000 C   0  0
   14.5700  -20.1019    0.0000 C   0  0
    8.4895  -14.9870    0.0000 C   0  0
    9.2048  -14.5762    0.0000 C   0  0
    9.2021  -13.7512    0.0000 C   0  0
    8.4848  -13.3401    0.0000 C   0  0
    7.7689  -13.7602    0.0000 C   0  0
    7.7752  -14.5839    0.0000 C   0  0
    8.4781  -12.5149    0.0000 N   0  3
    7.7615  -12.1045    0.0000 O   0  0
    9.1946  -12.0947    0.0000 O   0  5
   15.7337  -20.9307    0.0000 Cl  0  0
    7.0622  -15.0061    0.0000 N   0  3
    7.0694  -15.8317    0.0000 O   0  0
    6.3436  -14.5994    0.0000 O   0  5
  1  2  1  0
  2  3  2  0
  3  4  1  0
  4  5  2  0
  5  6  1  0
  6  7  2  0
  7  2  1  0
  8  9  1  0
  9 10  1  0
 10 11  2  0
 11 12  1  0
 12  8  2  0
  5  8  1  0
 10 13  1  0
 13 14  1  0
 14 15  1  0
 14 16  2  0
 15 17  2  0
 17 18  1  0
 18 19  2  0
 19 20  1  0
 20 21  2  0
 21 15  1  0
  1 22  1  0
 22 23  2  0
 23 24  1  0
 24 25  2  0
 25 26  1  0
 26 27  2  0
 27 22  1  0
 28 29  2  0
 28 30  1  0
 25 28  1  0
 20 31  1  0
 32 33  2  0
 32 34  1  0
 27 32  1  0
M  CHG  4  28   1  30  -1  32   1  34  -1
M  END
> <From>
www.bindingDB.org

> <BindingDB Reactant_set_id>
50289286

> <Ligand InChI>
InChI=1S/C21H12ClN5O6S/c22-14-3-1-2-13(10-14)19(28)23-21-25-24-20(34-21)12-4-7-16(8-5-12)33-18-9-6-15(26(29)30)11-17(18)27(31)32/h1-11H,(H,23,25,28)

> <Ligand InChI Key>
MUAUKMYYMZVYRG-UHFFFAOYSA-N

> <BindingDB MonomerID>
50057714

> <BindingDB Ligand Name>
CHEMBL3322851

> <Target Name Assigned by Curator or DataSource>
Protein-tyrosine phosphatase 1B

> <Target Source Organism According to Curator or DataSource>
Homo sapiens

> <IC50 (nM)>
3.3

> <Curation/DataSource>
ChEMBL

> <Article DOI>
10.1016/j.bmcl.2014.07.055

> <PMID>
25124112

> <Authors>
Li, Y; Yu, Y; Jin, K; Gao, L; Luo, T; Sheng, L; Shao, X; Li, J

> <Institution>
Liaoning Normal University

> <Link to Ligand in BindingDB>
http://www.bindingdb.org/bind/chemsearch/marvin/MolStructure.jsp?monomerid=50057714

> <Link to Ligand-Target Pair in BindingDB>
http://www.bindingdb.org/jsp/dbsearch/PrimarySearch_ki.jsp?energyterm=kJ/mole&tag=r21&monomerid=50057714&enzyme=Protein-tyrosine+phosphatase+1B&column=ki&startPg=0&Increment=50&submit=Search

> <PubChem CID>
118710353

> <PubChem SID>
103953736

> <ZINC ID of Ligand>
ZINC43676484

> <Number of Protein Chains in Target (>
1

> <BindingDB Target Chain Sequence>
MEMEKEFEQIDKSGSWAAIYQDIRHEASDFPCRVAKLPKNKNRNRYRDVSPFDHSRIKLHQEDNDYINASLIKMEEAQRSYILTQGPLPNTCGHFWEMVWEQKSRGVVMLNRVMEKGSLKCAQYWPQKEEKEMIFEDTNLKLTLISEDIKSYYTVRQLELENLTTQETREILHFHYTTWPDFGVPESPASFLNFLFKVRESGSLSPEHGPVVVHCSAGIGRSGTFCLADTCLLLMDKRKDPSSVDIKKVLLEMRKFRMGLIQTADQLRFSYLAVIEGAKFIMGDSSVQDQWKELSHEDLEPPPEHIPPPPRPPKRILEPHNGKCREFFPNHQWVKEETQEDKDCPIKEEKGSPLNAAPYGIESMSQDTEVRSRVVGGSLRGAQAASPAKGEPSLPEKDEDHALSYWKPFLVNMCVATVLTAGAYLCYRFLFNSNT

> <PDB ID(s) of Target Chain>
1BZJ,1G7G,1GFY,1JF7,1KAK,1KAV,1LQF,1NL9,1NNY,1NO6,1NZ7,1OEM,1OEO,1OES,1OET,1OEU,1OEV,1ONY,1ONZ,1PH0,1PXH,1PYN,1Q1M,1Q6J,1Q6M,1Q6N,1Q6P,1Q6S,1Q6T,1QXK,1SUG,1T48,1T49,1T4J,1WAX,1XBO,2AZR,2B07,2BGD,2BGE,2CM2,2CM3,2CM7,2CM8,2CMA,2CMB,2CMC,2CNE,2CNF,2CNG,2CNH,2CNI,2F6T,2F6V,2F6W,2F6Y,2F6Z,2F70,2F71,2FJN,2H4G,2H4K,2HB1,2HNP,2HNQ,2QBP,2QBQ,2QBR,2QBS,2VEU,2VEV,2VEW,2VEX,2VEY,2ZMM,2ZN7,3A5J,3CWE,3D9C,3EAX,3EB1,3EU0,3I7Z,3I80,3SME,4BJO,4I8N,4QBW,4Y14,5K9V,5K9W,5KA0,5KA1,5T19,6B90

> <UniProt (SwissProt) Recommended Name of Target Chain>
Tyrosine-protein phosphatase non-receptor type 1

> <UniProt (SwissProt) Entry Name of Target Chain>
PTN1_HUMAN

> <UniProt (SwissProt) Primary ID of Target Chain>
P18031

> <UniProt (SwissProt) Secondary ID(s) of Target Chain>
Q5TGD8,Q9BQV9,Q9NQQ4

$$$$

  SciTegic10241817252D

 31 34  0  0  0  0            999 V2000
    5.3602   -4.4018    0.0000 O   0  0
    6.0768   -4.8119    0.0000 C   0  0
    6.0766   -5.6353    0.0000 C   0  0
    6.7924   -6.0454    0.0000 C   0  0
    7.5069   -5.6298    0.0000 C   0  0
    7.5011   -4.7998    0.0000 C   0  0
    6.7847   -4.3934    0.0000 C   0  0
    8.2198   -6.0393    0.0000 C   0  0
    8.3103   -6.8600    0.0000 S   0  0
    9.1189   -7.0276    0.0000 C   0  0
    9.5281   -6.3103    0.0000 N   0  0
    8.9725   -5.6996    0.0000 N   0  0
    9.4586   -7.7802    0.0000 N   0  0
   10.2802   -7.8624    0.0000 C   0  0
   10.6199   -8.6150    0.0000 C   0  0
   10.7622   -7.1918    0.0000 O   0  0
   10.1352   -9.2810    0.0000 C   0  0
   10.4743  -10.0330    0.0000 C   0  0
   11.2967  -10.1157    0.0000 C   0  0
   11.7790   -9.4402    0.0000 C   0  0
   11.4373   -8.6907    0.0000 C   0  0
    5.3570   -3.5760    0.0000 C   0  0
    6.0723   -3.1653    0.0000 C   0  0
    6.0696   -2.3403    0.0000 C   0  0
    5.3524   -1.9293    0.0000 C   0  0
    4.6365   -2.3493    0.0000 C   0  0
    4.6427   -3.1729    0.0000 C   0  0
    5.3456   -1.1041    0.0000 N   0  3
    4.6292   -0.6937    0.0000 O   0  0
    6.0621   -0.6839    0.0000 O   0  5
   11.9155   -8.0177    0.0000 C   0  0
  1  2  1  0
  2  3  2  0
  3  4  1  0
  4  5  2  0
  5  6  1  0
  6  7  2  0
  7  2  1  0
  8  9  1  0
  9 10  1  0
 10 11  2  0
 11 12  1  0
 12  8  2  0
  5  8  1  0
 10 13  1  0
 13 14  1  0
 14 15  1  0
 14 16  2  0
 15 17  2  0
 17 18  1  0
 18 19  2  0
 19 20  1  0
 20 21  2  0
 21 15  1  0
  1 22  1  0
 22 23  2  0
 23 24  1  0
 24 25  2  0
 25 26  1  0
 26 27  2  0
 27 22  1  0
 28 29  2  0
 28 30  1  0
 25 28  1  0
 21 31  1  0
M  CHG  2  28   1  30  -1
M  END
> <From>
www.bindingDB.org

> <BindingDB Reactant_set_id>
50289182

> <Ligand InChI>
InChI=1S/C22H16N4O4S/c1-14-4-2-3-5-19(14)20(27)23-22-25-24-21(31-22)15-6-10-17(11-7-15)30-18-12-8-16(9-13-18)26(28)29/h2-13H,1H3,(H,23,25,27)

> <Ligand InChI Key>
RIXRRACTKHCABL-UHFFFAOYSA-N

> <BindingDB MonomerID>
50057654

> <BindingDB Ligand Name>
CHEMBL3322830

> <Target Name Assigned by Curator or DataSource>
Protein-tyrosine phosphatase 1B

> <Target Source Organism According to Curator or DataSource>
Homo sapiens

> <IC50 (nM)>
3.5

> <Curation/DataSource>
ChEMBL

> <Article DOI>
10.1016/j.bmcl.2014.07.055

> <PMID>
25124112

> <Authors>
Li, Y; Yu, Y; Jin, K; Gao, L; Luo, T; Sheng, L; Shao, X; Li, J

> <Institution>
Liaoning Normal University

> <Link to Ligand in BindingDB>
http://www.bindingdb.org/bind/chemsearch/marvin/MolStructure.jsp?monomerid=50057654

> <Link to Ligand-Target Pair in BindingDB>
http://www.bindingdb.org/jsp/dbsearch/PrimarySearch_ki.jsp?energyterm=kJ/mole&tag=r21&monomerid=50057654&enzyme=Protein-tyrosine+phosphatase+1B&column=ki&startPg=0&Increment=50&submit=Search

> <PubChem CID>
118710331

> <PubChem SID>
313070343

> <Number of Protein Chains in Target (>
1

> <BindingDB Target Chain Sequence>
MEMEKEFEQIDKSGSWAAIYQDIRHEASDFPCRVAKLPKNKNRNRYRDVSPFDHSRIKLHQEDNDYINASLIKMEEAQRSYILTQGPLPNTCGHFWEMVWEQKSRGVVMLNRVMEKGSLKCAQYWPQKEEKEMIFEDTNLKLTLISEDIKSYYTVRQLELENLTTQETREILHFHYTTWPDFGVPESPASFLNFLFKVRESGSLSPEHGPVVVHCSAGIGRSGTFCLADTCLLLMDKRKDPSSVDIKKVLLEMRKFRMGLIQTADQLRFSYLAVIEGAKFIMGDSSVQDQWKELSHEDLEPPPEHIPPPPRPPKRILEPHNGKCREFFPNHQWVKEETQEDKDCPIKEEKGSPLNAAPYGIESMSQDTEVRSRVVGGSLRGAQAASPAKGEPSLPEKDEDHALSYWKPFLVNMCVATVLTAGAYLCYRFLFNSNT

> <PDB ID(s) of Target Chain>
1BZJ,1G7G,1GFY,1JF7,1KAK,1KAV,1LQF,1NL9,1NNY,1NO6,1NZ7,1OEM,1OEO,1OES,1OET,1OEU,1OEV,1ONY,1ONZ,1PH0,1PXH,1PYN,1Q1M,1Q6J,1Q6M,1Q6N,1Q6P,1Q6S,1Q6T,1QXK,1SUG,1T48,1T49,1T4J,1WAX,1XBO,2AZR,2B07,2BGD,2BGE,2CM2,2CM3,2CM7,2CM8,2CMA,2CMB,2CMC,2CNE,2CNF,2CNG,2CNH,2CNI,2F6T,2F6V,2F6W,2F6Y,2F6Z,2F70,2F71,2FJN,2H4G,2H4K,2HB1,2HNP,2HNQ,2QBP,2QBQ,2QBR,2QBS,2VEU,2VEV,2VEW,2VEX,2VEY,2ZMM,2ZN7,3A5J,3CWE,3D9C,3EAX,3EB1,3EU0,3I7Z,3I80,3SME,4BJO,4I8N,4QBW,4Y14,5K9V,5K9W,5KA0,5KA1,5T19,6B90

> <UniProt (SwissProt) Recommended Name of Target Chain>
Tyrosine-protein phosphatase non-receptor type 1

> <UniProt (SwissProt) Entry Name of Target Chain>
PTN1_HUMAN

> <UniProt (SwissProt) Primary ID of Target Chain>
P18031

> <UniProt (SwissProt) Secondary ID(s) of Target Chain>
Q5TGD8,Q9BQV9,Q9NQQ4

$$$$

  SciTegic10241817252D

 35 39  0  0  0  0            999 V2000
   22.0955  -25.5909    0.0000 O   0  0
   22.8121  -26.0011    0.0000 C   0  0
   22.8119  -26.8244    0.0000 C   0  0
   23.5277  -27.2345    0.0000 C   0  0
   24.2421  -26.8188    0.0000 C   0  0
   24.2364  -25.9889    0.0000 C   0  0
   23.5200  -25.5826    0.0000 C   0  0
   24.9550  -27.2284    0.0000 C   0  0
   25.0455  -28.0492    0.0000 S   0  0
   25.8541  -28.2167    0.0000 C   0  0
   26.2633  -27.4995    0.0000 N   0  0
   25.7076  -26.8888    0.0000 N   0  0
   26.1938  -28.9693    0.0000 N   0  0
   27.0154  -29.0514    0.0000 C   0  0
   27.3551  -29.8041    0.0000 C   0  0
   27.4974  -28.3810    0.0000 O   0  0
   22.0923  -24.7651    0.0000 C   0  0
   22.8076  -24.3545    0.0000 C   0  0
   22.8049  -23.5295    0.0000 C   0  0
   22.0877  -23.1185    0.0000 C   0  0
   21.3718  -23.5385    0.0000 C   0  0
   21.3781  -24.3621    0.0000 C   0  0
   22.0809  -22.2933    0.0000 N   0  3
   21.3644  -21.8829    0.0000 O   0  0
   22.7974  -21.8732    0.0000 O   0  5
   28.1767  -29.8861    0.0000 C   0  0
   28.5115  -30.6401    0.0000 C   0  0
   29.3324  -30.7226    0.0000 C   0  0
   29.8152  -30.0516    0.0000 C   0  0
   28.6515  -29.2174    0.0000 C   0  0
   29.4694  -29.2985    0.0000 C   0  0
   29.9465  -28.6316    0.0000 C   0  0
   29.6070  -27.8833    0.0000 C   0  0
   28.7857  -27.8059    0.0000 C   0  0
   28.3121  -28.4737    0.0000 C   0  0
  1  2  1  0
  2  3  2  0
  3  4  1  0
  4  5  2  0
  5  6  1  0
  6  7  2  0
  7  2  1  0
  8  9  1  0
  9 10  1  0
 10 11  2  0
 11 12  1  0
 12  8  2  0
  5  8  1  0
 10 13  1  0
 13 14  1  0
 14 15  1  0
 14 16  2  0
  1 17  1  0
 17 18  2  0
 18 19  1  0
 19 20  2  0
 20 21  1  0
 21 22  2  0
 22 17  1  0
 23 24  2  0
 23 25  1  0
 20 23  1  0
 15 26  1  0
 26 27  2  0
 27 28  1  0
 28 29  2  0
 29 31  1  0
 30 26  1  0
 30 31  1  0
 31 32  2  0
 32 33  1  0
 33 34  2  0
 34 35  1  0
 35 30  2  0
M  CHG  2  23   1  25  -1
M  END
> <From>
www.bindingDB.org

> <BindingDB Reactant_set_id>
50289279

> <Ligand InChI>
InChI=1S/C26H18N4O4S/c31-24(16-19-6-3-5-17-4-1-2-7-23(17)19)27-26-29-28-25(35-26)18-8-12-21(13-9-18)34-22-14-10-20(11-15-22)30(32)33/h1-15H,16H2,(H,27,29,31)

> <Ligand InChI Key>
DDRVTSKVTAYRLL-UHFFFAOYSA-N

> <BindingDB MonomerID>
50057662

> <BindingDB Ligand Name>
CHEMBL3322844

> <Target Name Assigned by Curator or DataSource>
Protein-tyrosine phosphatase 1B

> <Target Source Organism According to Curator or DataSource>
Homo sapiens

> <IC50 (nM)>
3.6

> <Curation/DataSource>
ChEMBL

> <Article DOI>
10.1016/j.bmcl.2014.07.055

> <PMID>
25124112

> <Authors>
Li, Y; Yu, Y; Jin, K; Gao, L; Luo, T; Sheng, L; Shao, X; Li, J

> <Institution>
Liaoning Normal University

> <Link to Ligand in BindingDB>
http://www.bindingdb.org/bind/chemsearch/marvin/MolStructure.jsp?monomerid=50057662

> <Link to Ligand-Target Pair in BindingDB>
http://www.bindingdb.org/jsp/dbsearch/PrimarySearch_ki.jsp?energyterm=kJ/mole&tag=r21&monomerid=50057662&enzyme=Protein-tyrosine+phosphatase+1B&column=ki&startPg=0&Increment=50&submit=Search

> <PubChem CID>
118710346

> <PubChem SID>
313070350

> <Number of Protein Chains in Target (>
1

> <BindingDB Target Chain Sequence>
MEMEKEFEQIDKSGSWAAIYQDIRHEASDFPCRVAKLPKNKNRNRYRDVSPFDHSRIKLHQEDNDYINASLIKMEEAQRSYILTQGPLPNTCGHFWEMVWEQKSRGVVMLNRVMEKGSLKCAQYWPQKEEKEMIFEDTNLKLTLISEDIKSYYTVRQLELENLTTQETREILHFHYTTWPDFGVPESPASFLNFLFKVRESGSLSPEHGPVVVHCSAGIGRSGTFCLADTCLLLMDKRKDPSSVDIKKVLLEMRKFRMGLIQTADQLRFSYLAVIEGAKFIMGDSSVQDQWKELSHEDLEPPPEHIPPPPRPPKRILEPHNGKCREFFPNHQWVKEETQEDKDCPIKEEKGSPLNAAPYGIESMSQDTEVRSRVVGGSLRGAQAASPAKGEPSLPEKDEDHALSYWKPFLVNMCVATVLTAGAYLCYRFLFNSNT

> <PDB ID(s) of Target Chain>
1BZJ,1G7G,1GFY,1JF7,1KAK,1KAV,1LQF,1NL9,1NNY,1NO6,1NZ7,1OEM,1OEO,1OES,1OET,1OEU,1OEV,1ONY,1ONZ,1PH0,1PXH,1PYN,1Q1M,1Q6J,1Q6M,1Q6N,1Q6P,1Q6S,1Q6T,1QXK,1SUG,1T48,1T49,1T4J,1WAX,1XBO,2AZR,2B07,2BGD,2BGE,2CM2,2CM3,2CM7,2CM8,2CMA,2CMB,2CMC,2CNE,2CNF,2CNG,2CNH,2CNI,2F6T,2F6V,2F6W,2F6Y,2F6Z,2F70,2F71,2FJN,2H4G,2H4K,2HB1,2HNP,2HNQ,2QBP,2QBQ,2QBR,2QBS,2VEU,2VEV,2VEW,2VEX,2VEY,2ZMM,2ZN7,3A5J,3CWE,3D9C,3EAX,3EB1,3EU0,3I7Z,3I80,3SME,4BJO,4I8N,4QBW,4Y14,5K9V,5K9W,5KA0,5KA1,5T19,6B90

> <UniProt (SwissProt) Recommended Name of Target Chain>
Tyrosine-protein phosphatase non-receptor type 1

> <UniProt (SwissProt) Entry Name of Target Chain>
PTN1_HUMAN

> <UniProt (SwissProt) Primary ID of Target Chain>
P18031

> <UniProt (SwissProt) Secondary ID(s) of Target Chain>
Q5TGD8,Q9BQV9,Q9NQQ4

$$$$

  SciTegic10241817252D

 35 38  0  0  0  0            999 V2000
   -2.5277  -15.6029    0.0000 O   0  0
   -1.8100  -16.0131    0.0000 C   0  0
   -1.8097  -16.8361    0.0000 C   0  0
   -1.0995  -17.2462    0.0000 C   0  0
   -0.3796  -16.8307    0.0000 C   0  0
   -0.3905  -16.0009    0.0000 C   0  0
   -1.1086  -15.5947    0.0000 C   0  0
    0.3335  -17.2400    0.0000 C   0  0
    0.4240  -18.0606    0.0000 S   0  0
    1.2323  -18.2281    0.0000 C   0  0
    1.6414  -17.5110    0.0000 N   0  0
    1.0859  -16.9005    0.0000 N   0  0
    1.5719  -18.9805    0.0000 N   0  0
    2.3934  -19.0625    0.0000 C   0  0
    2.7329  -19.8150    0.0000 C   0  0
    2.8751  -18.3923    0.0000 O   0  0
    2.2483  -20.4808    0.0000 C   0  0
    2.5873  -21.2327    0.0000 C   0  0
    3.4095  -21.3153    0.0000 C   0  0
    3.8916  -20.6399    0.0000 C   0  0
    3.5500  -19.8908    0.0000 C   0  0
   -2.5330  -14.7775    0.0000 C   0  0
   -1.8138  -14.3669    0.0000 C   0  0
   -1.8195  -13.5421    0.0000 C   0  0
   -2.5366  -13.1313    0.0000 C   0  0
   -3.2551  -13.5512    0.0000 C   0  0
   -3.2447  -14.3745    0.0000 C   0  0
   -2.5466  -12.3064    0.0000 N   0  3
   -3.2562  -11.8961    0.0000 O   0  0
   -1.8287  -11.8863    0.0000 O   0  5
    3.7501  -22.0672    0.0000 O   0  0
    3.2692  -22.7381    0.0000 C   0  0
   -3.9552  -14.7920    0.0000 N   0  3
   -3.9514  -15.6175    0.0000 O   0  0
   -4.6718  -14.3904    0.0000 O   0  5
  1  2  1  0
  2  3  2  0
  3  4  1  0
  4  5  2  0
  5  6  1  0
  6  7  2  0
  7  2  1  0
  8  9  1  0
  9 10  1  0
 10 11  2  0
 11 12  1  0
 12  8  2  0
  5  8  1  0
 10 13  1  0
 13 14  1  0
 14 15  1  0
 14 16  2  0
 15 17  2  0
 17 18  1  0
 18 19  2  0
 19 20  1  0
 20 21  2  0
 21 15  1  0
  1 22  1  0
 22 23  2  0
 23 24  1  0
 24 25  2  0
 25 26  1  0
 26 27  2  0
 27 22  1  0
 28 29  2  0
 28 30  1  0
 25 28  1  0
 19 31  1  0
 31 32  1  0
 33 34  2  0
 33 35  1  0
 27 33  1  0
M  CHG  4  28   1  30  -1  33   1  35  -1
M  END
> <From>
www.bindingDB.org

> <BindingDB Reactant_set_id>
50289284

> <Ligand InChI>
InChI=1S/C22H15N5O7S/c1-33-16-7-2-13(3-8-16)20(28)23-22-25-24-21(35-22)14-4-9-17(10-5-14)34-19-11-6-15(26(29)30)12-18(19)27(31)32/h2-12H,1H3,(H,23,25,28)

> <Ligand InChI Key>
NJQMSOFDFQQDCR-UHFFFAOYSA-N

> <BindingDB MonomerID>
50057713

> <BindingDB Ligand Name>
CHEMBL3322849

> <Target Name Assigned by Curator or DataSource>
Protein-tyrosine phosphatase 1B

> <Target Source Organism According to Curator or DataSource>
Homo sapiens

> <IC50 (nM)>
3.8

> <Curation/DataSource>
ChEMBL

> <Article DOI>
10.1016/j.bmcl.2014.07.055

> <PMID>
25124112

> <Authors>
Li, Y; Yu, Y; Jin, K; Gao, L; Luo, T; Sheng, L; Shao, X; Li, J

> <Institution>
Liaoning Normal University

> <Link to Ligand in BindingDB>
http://www.bindingdb.org/bind/chemsearch/marvin/MolStructure.jsp?monomerid=50057713

> <Link to Ligand-Target Pair in BindingDB>
http://www.bindingdb.org/jsp/dbsearch/PrimarySearch_ki.jsp?energyterm=kJ/mole&tag=r21&monomerid=50057713&enzyme=Protein-tyrosine+phosphatase+1B&column=ki&startPg=0&Increment=50&submit=Search

> <PubChem CID>
118710351

> <PubChem SID>
103953735

> <ZINC ID of Ligand>
ZINC38155619

> <Number of Protein Chains in Target (>
1

> <BindingDB Target Chain Sequence>
MEMEKEFEQIDKSGSWAAIYQDIRHEASDFPCRVAKLPKNKNRNRYRDVSPFDHSRIKLHQEDNDYINASLIKMEEAQRSYILTQGPLPNTCGHFWEMVWEQKSRGVVMLNRVMEKGSLKCAQYWPQKEEKEMIFEDTNLKLTLISEDIKSYYTVRQLELENLTTQETREILHFHYTTWPDFGVPESPASFLNFLFKVRESGSLSPEHGPVVVHCSAGIGRSGTFCLADTCLLLMDKRKDPSSVDIKKVLLEMRKFRMGLIQTADQLRFSYLAVIEGAKFIMGDSSVQDQWKELSHEDLEPPPEHIPPPPRPPKRILEPHNGKCREFFPNHQWVKEETQEDKDCPIKEEKGSPLNAAPYGIESMSQDTEVRSRVVGGSLRGAQAASPAKGEPSLPEKDEDHALSYWKPFLVNMCVATVLTAGAYLCYRFLFNSNT

> <PDB ID(s) of Target Chain>
1BZJ,1G7G,1GFY,1JF7,1KAK,1KAV,1LQF,1NL9,1NNY,1NO6,1NZ7,1OEM,1OEO,1OES,1OET,1OEU,1OEV,1ONY,1ONZ,1PH0,1PXH,1PYN,1Q1M,1Q6J,1Q6M,1Q6N,1Q6P,1Q6S,1Q6T,1QXK,1SUG,1T48,1T49,1T4J,1WAX,1XBO,2AZR,2B07,2BGD,2BGE,2CM2,2CM3,2CM7,2CM8,2CMA,2CMB,2CMC,2CNE,2CNF,2CNG,2CNH,2CNI,2F6T,2F6V,2F6W,2F6Y,2F6Z,2F70,2F71,2FJN,2H4G,2H4K,2HB1,2HNP,2HNQ,2QBP,2QBQ,2QBR,2QBS,2VEU,2VEV,2VEW,2VEX,2VEY,2ZMM,2ZN7,3A5J,3CWE,3D9C,3EAX,3EB1,3EU0,3I7Z,3I80,3SME,4BJO,4I8N,4QBW,4Y14,5K9V,5K9W,5KA0,5KA1,5T19,6B90

> <UniProt (SwissProt) Recommended Name of Target Chain>
Tyrosine-protein phosphatase non-receptor type 1

> <UniProt (SwissProt) Entry Name of Target Chain>
PTN1_HUMAN

> <UniProt (SwissProt) Primary ID of Target Chain>
P18031

> <UniProt (SwissProt) Secondary ID(s) of Target Chain>
Q5TGD8,Q9BQV9,Q9NQQ4

$$$$

  SciTegic10241817252D

 55 61  0  0  0  0            999 V2000
   -2.5634    1.6500    0.0000 C   0  0
   -3.2779    1.2375    0.0000 C   0  0
   -3.2779    0.4125    0.0000 C   0  0
   -2.5634    0.0000    0.0000 N   0  0
   -1.8489    0.4125    0.0000 C   0  0
   -1.8489    1.2375    0.0000 C   0  0
   -1.1344    0.0000    0.0000 C   0  0
   -0.4200    0.4125    0.0000 C   0  0
   -0.4200    1.2375    0.0000 C   0  0
   -1.1344    1.6500    0.0000 C   0  0
    0.2945    1.6500    0.0000 Br  0  0
    0.2945   -0.0001    0.0000 C   0  0
    1.0090    0.4124    0.0000 F   0  0
    0.2945   -0.8251    0.0000 P   0  0
    1.0090   -0.4126    0.0000 F   0  0
   -3.9923    0.0000    0.0000 C   0  0
   -4.7068    0.4125    0.0000 C   0  0
   -5.4213    0.0000    0.0000 C   0  0
   -4.7068    1.2375    0.0000 N   0  0
   -4.0394    1.7224    0.0000 N   0  0
   -4.2943    2.5070    0.0000 N   0  0
   -5.1193    2.5070    0.0000 C   0  0
   -5.3742    1.7224    0.0000 C   0  0
   -6.1812    1.5509    0.0000 C   0  0
   -6.7333    2.1639    0.0000 C   0  0
   -6.4783    2.9486    0.0000 C   0  0
   -5.6714    3.1201    0.0000 C   0  0
   -5.4213   -0.8250    0.0000 C   0  0
   -6.1357    0.4125    0.0000 O   0  0
   -6.1357   -1.2375    0.0000 C   0  0
   -6.1357   -2.0625    0.0000 C   0  0
   -5.4213   -2.4750    0.0000 C   0  0
   -4.7068   -2.0625    0.0000 C   0  0
   -4.7068   -1.2375    0.0000 C   0  0
    1.0090   -1.2376    0.0000 O   0  0
   -0.4200   -1.2375    0.0000 O   0  0
    0.2945   -1.6501    0.0000 O   0  0
   -4.7068   -0.4125    0.0000 C   0  0
   -3.9923   -0.8250    0.0000 C   0  0
   -3.9923   -1.6500    0.0000 N   0  0
   -3.2778   -2.0625    0.0000 C   0  0
   -2.5634   -1.6500    0.0000 C   0  0
   -2.5634   -0.8250    0.0000 C   0  0
   -3.2779   -0.4125    0.0000 C   0  0
   -3.2778   -2.8875    0.0000 C   0  0
   -2.5633   -3.3000    0.0000 C   0  0
   -1.8488   -2.8875    0.0000 C   0  0
   -1.8489   -2.0625    0.0000 C   0  0
   -1.1344   -3.2999    0.0000 Br  0  0
   -2.5633   -4.1250    0.0000 C   0  0
   -1.8488   -4.5375    0.0000 S   0  0
   -3.2777   -4.5375    0.0000 F   0  0
   -2.5632   -4.9500    0.0000 F   0  0
   -1.8488   -5.3625    0.0000 N   0  0
   -1.1343   -4.1250    0.0000 O   0  0
  1  2  1  0
  1  6  2  0
  2  3  2  0
  3  4  1  0
  4  5  2  0
  5  7  1  0
  6  5  1  0
  6 10  1  0
  7  8  2  0
  8  9  1  0
  9 10  2  0
  9 11  1  0
  8 12  1  0
 12 13  1  0
 12 14  1  0
 12 15  1  0
  3 16  1  0
 16 17  1  0
 17 18  1  0
 17 19  1  0
 19 20  1  0
 19 23  1  0
 20 21  2  0
 21 22  1  0
 22 27  2  0
 22 23  1  0
 23 24  2  0
 24 25  1  0
 25 26  2  0
 26 27  1  0
 18 28  1  0
 18 29  2  0
 28 30  2  0
 28 34  1  0
 30 31  1  0
 31 32  2  0
 32 33  1  0
 33 34  2  0
 14 35  1  0
 14 36  2  0
 14 37  1  0
 17 38  1  0
 38 39  1  0
 39 40  1  0
 39 44  2  0
 40 41  2  0
 42 43  2  0
 43 44  1  0
 41 45  1  0
 41 42  1  0
 42 48  1  0
 45 46  2  0
 46 47  1  0
 47 48  2  0
 47 49  1  0
 46 50  1  0
 50 51  1  0
 50 52  1  0
 50 53  1  0
 51 54  1  0
 51 55  2  0
M  END
> <From>
www.bindingDB.org

> <BindingDB Reactant_set_id>
253409

> <Ligand InChI>
InChI=1S/C36H25Br2F4N6O5PS/c37-27-14-21-10-12-23(44-30(21)16-25(27)35(39,40)54(50,51)52)18-34(33(49)20-6-2-1-3-7-20,48-32-9-5-4-8-29(32)46-47-48)19-24-13-11-22-15-28(38)26(17-31(22)45-24)36(41,42)55(43)53/h1-17H,18-19,43H2,(H2,50,51,52)

> <Ligand InChI Key>
UBRICIIBZMGNGX-UHFFFAOYSA-N

> <BindingDB MonomerID>
124221

> <BindingDB Ligand Name>
({2-[2-({7-[(aminosulfinyl)difluoromethyl]-6-bromoquinolin-2-yl}methyl)-2-(1H-1,2,3-benzotriazol-1-yl)-3-oxo-3-phenylpropyl]-6-bromoquinolin-7-yl}difluoromethyl)phosphonic acid (10o)

> <Target Name Assigned by Curator or DataSource>
Protein-tyrosine phosphatase 1B

> <Target Source Organism According to Curator or DataSource>
Homo sapiens

> <IC50 (nM)>
4

> <Curation/DataSource>
Curated from the literature by BindingDB

> <Article DOI>
10.1002/cmdc.201100077

> <PMID>
21506278

> <Authors>
Patel, D; Jain, M; Shah, SR; Bahekar, R; Jadav, P; Darji, B; Siriki, Y; Bandyopadhyay, D; Joharapurkar, A; Kshirsagar, S; Patel, H; Shaikh, M; Sairam, KV; Patel, P

> <Institution>
Zydus Research Centre

> <Link to Ligand in BindingDB>
http://www.bindingdb.org/bind/chemsearch/marvin/MolStructure.jsp?monomerid=124221

> <Link to Ligand-Target Pair in BindingDB>
http://www.bindingdb.org/jsp/dbsearch/PrimarySearch_ki.jsp?energyterm=kJ/mole&tag=r21&monomerid=124221&enzyme=Protein-tyrosine+phosphatase+1B&column=ki&startPg=0&Increment=50&submit=Search

> <PubChem CID>
86766294

> <PubChem SID>
225150613

> <Number of Protein Chains in Target (>
1

> <BindingDB Target Chain Sequence>
MEMEKEFEQIDKSGSWAAIYQDIRHEASDFPCRVAKLPKNKNRNRYRDVSPFDHSRIKLHQEDNDYINASLIKMEEAQRSYILTQGPLPNTCGHFWEMVWEQKSRGVVMLNRVMEKGSLKCAQYWPQKEEKEMIFEDTNLKLTLISEDIKSYYTVRQLELENLTTQETREILHFHYTTWPDFGVPESPASFLNFLFKVRESGSLSPEHGPVVVHCSAGIGRSGTFCLADTCLLLMDKRKDPSSVDIKKVLLEMRKFRMGLIQTADQLRFSYLAVIEGAKFIMGDSSVQDQWKELSHEDLEPPPEHIPPPPRPPKRILEPHNGKCREFFPNHQWVKEETQEDKDCPIKEEKGSPLNAAPYGIESMSQDTEVRSRVVGGSLRGAQAASPAKGEPSLPEKDEDHALSYWKPFLVNMCVATVLTAGAYLCYRFLFNSNT

> <PDB ID(s) of Target Chain>
1BZJ,1G7G,1GFY,1JF7,1KAK,1KAV,1LQF,1NL9,1NNY,1NO6,1NZ7,1OEM,1OEO,1OES,1OET,1OEU,1OEV,1ONY,1ONZ,1PH0,1PXH,1PYN,1Q1M,1Q6J,1Q6M,1Q6N,1Q6P,1Q6S,1Q6T,1QXK,1SUG,1T48,1T49,1T4J,1WAX,1XBO,2AZR,2B07,2BGD,2BGE,2CM2,2CM3,2CM7,2CM8,2CMA,2CMB,2CMC,2CNE,2CNF,2CNG,2CNH,2CNI,2F6T,2F6V,2F6W,2F6Y,2F6Z,2F70,2F71,2FJN,2H4G,2H4K,2HB1,2HNP,2HNQ,2QBP,2QBQ,2QBR,2QBS,2VEU,2VEV,2VEW,2VEX,2VEY,2ZMM,2ZN7,3A5J,3CWE,3D9C,3EAX,3EB1,3EU0,3I7Z,3I80,3SME,4BJO,4I8N,4QBW,4Y14,5K9V,5K9W,5KA0,5KA1,5T19,6B90

> <UniProt (SwissProt) Recommended Name of Target Chain>
Tyrosine-protein phosphatase non-receptor type 1

> <UniProt (SwissProt) Entry Name of Target Chain>
PTN1_HUMAN

> <UniProt (SwissProt) Primary ID of Target Chain>
P18031

> <UniProt (SwissProt) Secondary ID(s) of Target Chain>
Q5TGD8,Q9BQV9,Q9NQQ4

$$$$

  SciTegic10241817252D

 26 27  0  0  1  0            999 V2000
   -2.6352    2.0325    0.0000 O   0  0
    0.2227    2.0325    0.0000 O   0  0
    0.9372    0.7950    0.0000 O   0  0
   -2.6352    2.8575    0.0000 O   0  0
    0.9372   -4.1550    0.0000 O   0  0
   -1.2062    2.0325    0.0000 C   0  0
   -0.4918    1.6200    0.0000 C   0  0
   -0.4918    0.7950    0.0000 C   0  0
   -1.9207    1.6200    0.0000 C   0  0
    0.2227    0.3825    0.0000 C   0  0
   -1.2062    0.3825    0.0000 C   0  0
   -1.9207    0.7950    0.0000 C   0  0
   -1.2062    2.8575    0.0000 C   0  0
   -1.9207    3.2700    0.0000 C   0  0
    0.2227   -0.4425    0.0000 C   0  0
    0.9372   -0.8550    0.0000 C   0  0
   -1.9207    4.0950    0.0000 C   0  0
    0.9372   -1.6800    0.0000 C   0  0
    1.6517   -2.0925    0.0000 C   0  0
    0.2227   -2.0925    0.0000 C   0  0
   -3.3496    1.6200    0.0000 C   0  0
    0.9372   -3.3300    0.0000 C   0  0
    1.6517   -2.9175    0.0000 C   0  0
    0.2227   -2.9175    0.0000 C   0  0
   -2.6352    4.5075    0.0000 C   0  0
   -1.2062    4.5075    0.0000 C   0  0
  1  9  1  0
  1 21  1  0
  2  7  1  0
  3 10  2  0
  4 14  1  0
  5 22  1  0
  6  7  2  0
  6  9  1  0
  6 13  1  0
  7  8  1  0
  8 10  1  0
  8 11  2  0
  9 12  2  0
 10 15  1  0
 11 12  1  0
 13 14  1  0
 14 17  1  0
 15 16  2  0
 16 18  1  0
 17 25  2  0
 17 26  1  0
 18 19  2  0
 18 20  1  0
 19 23  1  0
 20 24  2  0
 22 23  2  0
 22 24  1  0
M  END
> <From>
www.bindingDB.org

> <BindingDB Reactant_set_id>
50308820

> <Ligand InChI>
InChI=1S/C21H22O5/c1-13(2)19(24)12-17-20(26-3)11-9-16(21(17)25)18(23)10-6-14-4-7-15(22)8-5-14/h4-11,19,22,24-25H,1,12H2,2-3H3/b10-6+

> <Ligand InChI Key>
YSOKENZJQWPLRA-UXBLZVDNSA-N

> <BindingDB MonomerID>
50352810

> <BindingDB Ligand Name>
CHEMBL1711961

> <Target Name Assigned by Curator or DataSource>
Protein-tyrosine phosphatase 1B

> <Target Source Organism According to Curator or DataSource>
Homo sapiens

> <IC50 (nM)>
4

> <Curation/DataSource>
ChEMBL

> <Article DOI>
10.1016/j.bmcl.2015.04.003

> <PMID>
25891102

> <Authors>
Li, JL; Gao, LX; Meng, FW; Tang, CL; Zhang, RJ; Li, JY; Luo, C; Li, J; Zhao, WM

> <Institution>
Chinese Academy of Sciences

> <Link to Ligand in BindingDB>
http://www.bindingdb.org/bind/chemsearch/marvin/MolStructure.jsp?monomerid=50352810

> <Link to Ligand-Target Pair in BindingDB>
http://www.bindingdb.org/jsp/dbsearch/PrimarySearch_ki.jsp?energyterm=kJ/mole&tag=r21&monomerid=50352810&enzyme=Protein-tyrosine+phosphatase+1B&column=ki&startPg=0&Increment=50&submit=Search

> <PubChem CID>
11302670

> <PubChem SID>
136359496

> <ChEMBL ID of Ligand>
CHEMBL1711961

> <ZINC ID of Ligand>
ZINC14819168

> <Number of Protein Chains in Target (>
1

> <BindingDB Target Chain Sequence>
MEMEKEFEQIDKSGSWAAIYQDIRHEASDFPCRVAKLPKNKNRNRYRDVSPFDHSRIKLHQEDNDYINASLIKMEEAQRSYILTQGPLPNTCGHFWEMVWEQKSRGVVMLNRVMEKGSLKCAQYWPQKEEKEMIFEDTNLKLTLISEDIKSYYTVRQLELENLTTQETREILHFHYTTWPDFGVPESPASFLNFLFKVRESGSLSPEHGPVVVHCSAGIGRSGTFCLADTCLLLMDKRKDPSSVDIKKVLLEMRKFRMGLIQTADQLRFSYLAVIEGAKFIMGDSSVQDQWKELSHEDLEPPPEHIPPPPRPPKRILEPHNGKCREFFPNHQWVKEETQEDKDCPIKEEKGSPLNAAPYGIESMSQDTEVRSRVVGGSLRGAQAASPAKGEPSLPEKDEDHALSYWKPFLVNMCVATVLTAGAYLCYRFLFNSNT

> <PDB ID(s) of Target Chain>
1BZJ,1G7G,1GFY,1JF7,1KAK,1KAV,1LQF,1NL9,1NNY,1NO6,1NZ7,1OEM,1OEO,1OES,1OET,1OEU,1OEV,1ONY,1ONZ,1PH0,1PXH,1PYN,1Q1M,1Q6J,1Q6M,1Q6N,1Q6P,1Q6S,1Q6T,1QXK,1SUG,1T48,1T49,1T4J,1WAX,1XBO,2AZR,2B07,2BGD,2BGE,2CM2,2CM3,2CM7,2CM8,2CMA,2CMB,2CMC,2CNE,2CNF,2CNG,2CNH,2CNI,2F6T,2F6V,2F6W,2F6Y,2F6Z,2F70,2F71,2FJN,2H4G,2H4K,2HB1,2HNP,2HNQ,2QBP,2QBQ,2QBR,2QBS,2VEU,2VEV,2VEW,2VEX,2VEY,2ZMM,2ZN7,3A5J,3CWE,3D9C,3EAX,3EB1,3EU0,3I7Z,3I80,3SME,4BJO,4I8N,4QBW,4Y14,5K9V,5K9W,5KA0,5KA1,5T19,6B90

> <UniProt (SwissProt) Recommended Name of Target Chain>
Tyrosine-protein phosphatase non-receptor type 1

> <UniProt (SwissProt) Entry Name of Target Chain>
PTN1_HUMAN

> <UniProt (SwissProt) Primary ID of Target Chain>
P18031

> <UniProt (SwissProt) Secondary ID(s) of Target Chain>
Q5TGD8,Q9BQV9,Q9NQQ4

$$$$

  SciTegic10241817252D

 34 37  0  0  0  0            999 V2000
    3.3083   -4.6186    0.0000 O   0  0
    4.0250   -5.0287    0.0000 C   0  0
    4.0248   -5.8522    0.0000 C   0  0
    4.7406   -6.2622    0.0000 C   0  0
    5.4551   -5.8466    0.0000 C   0  0
    5.4493   -5.0166    0.0000 C   0  0
    4.7329   -4.6103    0.0000 C   0  0
    6.1679   -6.2561    0.0000 C   0  0
    6.2585   -7.0768    0.0000 S   0  0
    7.0670   -7.2445    0.0000 C   0  0
    7.4763   -6.5272    0.0000 N   0  0
    6.9206   -5.9164    0.0000 N   0  0
    7.4068   -7.9971    0.0000 N   0  0
    8.2284   -8.0792    0.0000 C   0  0
    8.5681   -8.8318    0.0000 C   0  0
    8.7103   -7.4087    0.0000 O   0  0
    8.0834   -9.4978    0.0000 C   0  0
    8.4225  -10.2499    0.0000 C   0  0
    9.2449  -10.3325    0.0000 C   0  0
    9.7272   -9.6570    0.0000 C   0  0
    9.3854   -8.9077    0.0000 C   0  0
    3.3052   -3.7929    0.0000 C   0  0
    4.0205   -3.3821    0.0000 C   0  0
    4.0178   -2.5572    0.0000 C   0  0
    3.3006   -2.1462    0.0000 C   0  0
    2.5846   -2.5662    0.0000 C   0  0
    2.5909   -3.3898    0.0000 C   0  0
    3.2938   -1.3210    0.0000 N   0  3
    2.5774   -0.9105    0.0000 O   0  0
    4.0103   -0.9008    0.0000 O   0  5
    9.8637   -8.2345    0.0000 C   0  0
    1.8780   -3.8074    0.0000 N   0  3
    1.8852   -4.6330    0.0000 O   0  0
    1.1594   -3.4007    0.0000 O   0  5
  1  2  1  0
  2  3  2  0
  3  4  1  0
  4  5  2  0
  5  6  1  0
  6  7  2  0
  7  2  1  0
  8  9  1  0
  9 10  1  0
 10 11  2  0
 11 12  1  0
 12  8  2  0
  5  8  1  0
 10 13  1  0
 13 14  1  0
 14 15  1  0
 14 16  2  0
 15 17  2  0
 17 18  1  0
 18 19  2  0
 19 20  1  0
 20 21  2  0
 21 15  1  0
  1 22  1  0
 22 23  2  0
 23 24  1  0
 24 25  2  0
 25 26  1  0
 26 27  2  0
 27 22  1  0
 28 29  2  0
 28 30  1  0
 25 28  1  0
 21 31  1  0
 32 33  2  0
 32 34  1  0
 27 32  1  0
M  CHG  4  28   1  30  -1  32   1  34  -1
M  END
> <From>
www.bindingDB.org

> <BindingDB Reactant_set_id>
50289280

> <Ligand InChI>
InChI=1S/C22H15N5O6S/c1-13-4-2-3-5-17(13)20(28)23-22-25-24-21(34-22)14-6-9-16(10-7-14)33-19-11-8-15(26(29)30)12-18(19)27(31)32/h2-12H,1H3,(H,23,25,28)

> <Ligand InChI Key>
WMVTVQQDHAKAPD-UHFFFAOYSA-N

> <BindingDB MonomerID>
50057663

> <BindingDB Ligand Name>
CHEMBL3322845

> <Target Name Assigned by Curator or DataSource>
Protein-tyrosine phosphatase 1B

> <Target Source Organism According to Curator or DataSource>
Homo sapiens

> <IC50 (nM)>
4

> <Curation/DataSource>
ChEMBL

> <Article DOI>
10.1016/j.bmcl.2014.07.055

> <PMID>
25124112

> <Authors>
Li, Y; Yu, Y; Jin, K; Gao, L; Luo, T; Sheng, L; Shao, X; Li, J

> <Institution>
Liaoning Normal University

> <Link to Ligand in BindingDB>
http://www.bindingdb.org/bind/chemsearch/marvin/MolStructure.jsp?monomerid=50057663

> <Link to Ligand-Target Pair in BindingDB>
http://www.bindingdb.org/jsp/dbsearch/PrimarySearch_ki.jsp?energyterm=kJ/mole&tag=r21&monomerid=50057663&enzyme=Protein-tyrosine+phosphatase+1B&column=ki&startPg=0&Increment=50&submit=Search

> <PubChem CID>
118710347

> <PubChem SID>
103953686

> <ChEMBL ID of Ligand>
CHEMBL537254

> <ZINC ID of Ligand>
ZINC00600755

> <Number of Protein Chains in Target (>
1

> <BindingDB Target Chain Sequence>
MEMEKEFEQIDKSGSWAAIYQDIRHEASDFPCRVAKLPKNKNRNRYRDVSPFDHSRIKLHQEDNDYINASLIKMEEAQRSYILTQGPLPNTCGHFWEMVWEQKSRGVVMLNRVMEKGSLKCAQYWPQKEEKEMIFEDTNLKLTLISEDIKSYYTVRQLELENLTTQETREILHFHYTTWPDFGVPESPASFLNFLFKVRESGSLSPEHGPVVVHCSAGIGRSGTFCLADTCLLLMDKRKDPSSVDIKKVLLEMRKFRMGLIQTADQLRFSYLAVIEGAKFIMGDSSVQDQWKELSHEDLEPPPEHIPPPPRPPKRILEPHNGKCREFFPNHQWVKEETQEDKDCPIKEEKGSPLNAAPYGIESMSQDTEVRSRVVGGSLRGAQAASPAKGEPSLPEKDEDHALSYWKPFLVNMCVATVLTAGAYLCYRFLFNSNT

> <PDB ID(s) of Target Chain>
1BZJ,1G7G,1GFY,1JF7,1KAK,1KAV,1LQF,1NL9,1NNY,1NO6,1NZ7,1OEM,1OEO,1OES,1OET,1OEU,1OEV,1ONY,1ONZ,1PH0,1PXH,1PYN,1Q1M,1Q6J,1Q6M,1Q6N,1Q6P,1Q6S,1Q6T,1QXK,1SUG,1T48,1T49,1T4J,1WAX,1XBO,2AZR,2B07,2BGD,2BGE,2CM2,2CM3,2CM7,2CM8,2CMA,2CMB,2CMC,2CNE,2CNF,2CNG,2CNH,2CNI,2F6T,2F6V,2F6W,2F6Y,2F6Z,2F70,2F71,2FJN,2H4G,2H4K,2HB1,2HNP,2HNQ,2QBP,2QBQ,2QBR,2QBS,2VEU,2VEV,2VEW,2VEX,2VEY,2ZMM,2ZN7,3A5J,3CWE,3D9C,3EAX,3EB1,3EU0,3I7Z,3I80,3SME,4BJO,4I8N,4QBW,4Y14,5K9V,5K9W,5KA0,5KA1,5T19,6B90

> <UniProt (SwissProt) Recommended Name of Target Chain>
Tyrosine-protein phosphatase non-receptor type 1

> <UniProt (SwissProt) Entry Name of Target Chain>
PTN1_HUMAN

> <UniProt (SwissProt) Primary ID of Target Chain>
P18031

> <UniProt (SwissProt) Secondary ID(s) of Target Chain>
Q5TGD8,Q9BQV9,Q9NQQ4

$$$$

  SciTegic10241817252D

 55 61  0  0  0  0            999 V2000
   -2.5634    1.6500    0.0000 C   0  0
   -3.2779    1.2375    0.0000 C   0  0
   -3.2779    0.4125    0.0000 C   0  0
   -2.5634    0.0000    0.0000 C   0  0
   -1.8489    0.4125    0.0000 C   0  0
   -1.8489    1.2375    0.0000 C   0  0
   -1.1344    0.0000    0.0000 C   0  0
   -0.4200    0.4125    0.0000 C   0  0
   -0.4200    1.2375    0.0000 C   0  0
   -1.1344    1.6500    0.0000 C   0  0
    0.2945    1.6500    0.0000 Br  0  0
    0.2945   -0.0001    0.0000 C   0  0
    1.0090    0.4124    0.0000 F   0  0
    0.2945   -0.8251    0.0000 P   0  0
    1.0090   -0.4126    0.0000 F   0  0
   -3.9923    0.0000    0.0000 C   0  0
   -4.7068    0.4125    0.0000 C   0  0
   -5.4213    0.0000    0.0000 C   0  0
   -4.7068    1.2375    0.0000 N   0  0
   -4.0394    1.7224    0.0000 N   0  0
   -4.2943    2.5070    0.0000 N   0  0
   -5.1193    2.5070    0.0000 C   0  0
   -5.3742    1.7224    0.0000 C   0  0
   -6.1812    1.5509    0.0000 C   0  0
   -6.7333    2.1639    0.0000 C   0  0
   -6.4783    2.9486    0.0000 C   0  0
   -5.6714    3.1201    0.0000 C   0  0
   -5.4213   -0.8250    0.0000 C   0  0
   -6.1357    0.4125    0.0000 O   0  0
   -6.1357   -1.2375    0.0000 C   0  0
   -6.1357   -2.0625    0.0000 C   0  0
   -5.4213   -2.4750    0.0000 C   0  0
   -4.7068   -2.0625    0.0000 C   0  0
   -4.7068   -1.2375    0.0000 C   0  0
    1.0090   -1.2376    0.0000 O   0  0
   -0.4200   -1.2375    0.0000 O   0  0
    0.2945   -1.6501    0.0000 O   0  0
   -4.7068   -0.4125    0.0000 C   0  0
   -3.9923   -0.8250    0.0000 C   0  0
   -3.9923   -1.6500    0.0000 C   0  0
   -3.2778   -2.0625    0.0000 C   0  0
   -2.5634   -1.6500    0.0000 C   0  0
   -2.5634   -0.8250    0.0000 C   0  0
   -3.2779   -0.4125    0.0000 C   0  0
   -3.2778   -2.8875    0.0000 C   0  0
   -2.5633   -3.3000    0.0000 C   0  0
   -1.8488   -2.8875    0.0000 C   0  0
   -1.8489   -2.0625    0.0000 C   0  0
   -1.1344   -3.2999    0.0000 Br  0  0
   -2.5633   -4.1250    0.0000 C   0  0
   -1.8488   -4.5375    0.0000 S   0  0
   -3.2777   -4.5375    0.0000 F   0  0
   -2.5632   -4.9500    0.0000 F   0  0
   -1.8488   -5.3625    0.0000 N   0  0
   -1.1343   -4.1250    0.0000 O   0  0
  1  2  1  0
  1  6  2  0
  2  3  2  0
  3  4  1  0
  4  5  2  0
  5  7  1  0
  6  5  1  0
  6 10  1  0
  7  8  2  0
  8  9  1  0
  9 10  2  0
  9 11  1  0
  8 12  1  0
 12 13  1  0
 12 14  1  0
 12 15  1  0
  3 16  1  0
 16 17  1  0
 17 18  1  0
 17 19  1  0
 19 20  1  0
 19 23  1  0
 20 21  2  0
 21 22  1  0
 22 27  2  0
 22 23  1  0
 23 24  2  0
 24 25  1  0
 25 26  2  0
 26 27  1  0
 18 28  1  0
 18 29  2  0
 28 30  2  0
 28 34  1  0
 30 31  1  0
 31 32  2  0
 32 33  1  0
 33 34  2  0
 14 35  1  0
 14 36  2  0
 14 37  1  0
 17 38  1  0
 38 39  1  0
 39 40  1  0
 39 44  2  0
 40 41  2  0
 42 43  2  0
 43 44  1  0
 41 45  1  0
 41 42  1  0
 42 48  1  0
 45 46  2  0
 46 47  1  0
 47 48  2  0
 47 49  1  0
 46 50  1  0
 50 51  1  0
 50 52  1  0
 50 53  1  0
 51 54  1  0
 51 55  2  0
M  END
> <From>
www.bindingDB.org

> <BindingDB Reactant_set_id>
253404

> <Ligand InChI>
InChI=1S/C38H27Br2F4N4O5PS/c39-31-18-25-12-10-22(14-27(25)16-29(31)37(41,42)54(50,51)52)20-36(35(49)24-6-2-1-3-7-24,48-34-9-5-4-8-33(34)46-47-48)21-23-11-13-26-19-32(40)30(17-28(26)15-23)38(43,44)55(45)53/h1-19H,20-21,45H2,(H2,50,51,52)

> <Ligand InChI Key>
XZBONGJVYMLTQL-UHFFFAOYSA-N

> <BindingDB MonomerID>
124216

> <BindingDB Ligand Name>
({7-[2-({7-[(aminosulfinyl)difluoromethyl]-6-bromonaphthalen-2-yl}methyl)-2-(1H-1,2,3-benzotriazol-1-yl)-3-oxo-3-phenylpropyl]-3-bromonaphthalen-2-yl}difluoromethyl)phosphonic acid (10j)

> <Target Name Assigned by Curator or DataSource>
Protein-tyrosine phosphatase 1B

> <Target Source Organism According to Curator or DataSource>
Homo sapiens

> <IC50 (nM)>
4

> <Curation/DataSource>
Curated from the literature by BindingDB

> <Article DOI>
10.1002/cmdc.201100077

> <PMID>
21506278

> <Authors>
Patel, D; Jain, M; Shah, SR; Bahekar, R; Jadav, P; Darji, B; Siriki, Y; Bandyopadhyay, D; Joharapurkar, A; Kshirsagar, S; Patel, H; Shaikh, M; Sairam, KV; Patel, P

> <Institution>
Zydus Research Centre

> <Link to Ligand in BindingDB>
http://www.bindingdb.org/bind/chemsearch/marvin/MolStructure.jsp?monomerid=124216

> <Link to Ligand-Target Pair in BindingDB>
http://www.bindingdb.org/jsp/dbsearch/PrimarySearch_ki.jsp?energyterm=kJ/mole&tag=r21&monomerid=124216&enzyme=Protein-tyrosine+phosphatase+1B&column=ki&startPg=0&Increment=50&submit=Search

> <PubChem CID>
53361712

> <PubChem SID>
225150608

> <Number of Protein Chains in Target (>
1

> <BindingDB Target Chain Sequence>
MEMEKEFEQIDKSGSWAAIYQDIRHEASDFPCRVAKLPKNKNRNRYRDVSPFDHSRIKLHQEDNDYINASLIKMEEAQRSYILTQGPLPNTCGHFWEMVWEQKSRGVVMLNRVMEKGSLKCAQYWPQKEEKEMIFEDTNLKLTLISEDIKSYYTVRQLELENLTTQETREILHFHYTTWPDFGVPESPASFLNFLFKVRESGSLSPEHGPVVVHCSAGIGRSGTFCLADTCLLLMDKRKDPSSVDIKKVLLEMRKFRMGLIQTADQLRFSYLAVIEGAKFIMGDSSVQDQWKELSHEDLEPPPEHIPPPPRPPKRILEPHNGKCREFFPNHQWVKEETQEDKDCPIKEEKGSPLNAAPYGIESMSQDTEVRSRVVGGSLRGAQAASPAKGEPSLPEKDEDHALSYWKPFLVNMCVATVLTAGAYLCYRFLFNSNT

> <PDB ID(s) of Target Chain>
1BZJ,1G7G,1GFY,1JF7,1KAK,1KAV,1LQF,1NL9,1NNY,1NO6,1NZ7,1OEM,1OEO,1OES,1OET,1OEU,1OEV,1ONY,1ONZ,1PH0,1PXH,1PYN,1Q1M,1Q6J,1Q6M,1Q6N,1Q6P,1Q6S,1Q6T,1QXK,1SUG,1T48,1T49,1T4J,1WAX,1XBO,2AZR,2B07,2BGD,2BGE,2CM2,2CM3,2CM7,2CM8,2CMA,2CMB,2CMC,2CNE,2CNF,2CNG,2CNH,2CNI,2F6T,2F6V,2F6W,2F6Y,2F6Z,2F70,2F71,2FJN,2H4G,2H4K,2HB1,2HNP,2HNQ,2QBP,2QBQ,2QBR,2QBS,2VEU,2VEV,2VEW,2VEX,2VEY,2ZMM,2ZN7,3A5J,3CWE,3D9C,3EAX,3EB1,3EU0,3I7Z,3I80,3SME,4BJO,4I8N,4QBW,4Y14,5K9V,5K9W,5KA0,5KA1,5T19,6B90

> <UniProt (SwissProt) Recommended Name of Target Chain>
Tyrosine-protein phosphatase non-receptor type 1

> <UniProt (SwissProt) Entry Name of Target Chain>
PTN1_HUMAN

> <UniProt (SwissProt) Primary ID of Target Chain>
P18031

> <UniProt (SwissProt) Secondary ID(s) of Target Chain>
Q5TGD8,Q9BQV9,Q9NQQ4

$$$$

  SciTegic10241817252D

 36 39  0  0  0  0            999 V2000
   23.1927  -15.6910    0.0000 O   0  0
   23.9094  -16.1011    0.0000 C   0  0
   23.9091  -16.9246    0.0000 C   0  0
   24.6250  -17.3346    0.0000 C   0  0
   25.3395  -16.9190    0.0000 C   0  0
   25.3337  -16.0890    0.0000 C   0  0
   24.6174  -15.6827    0.0000 C   0  0
   26.0524  -17.3285    0.0000 C   0  0
   26.1430  -18.1492    0.0000 S   0  0
   26.9515  -18.3169    0.0000 C   0  0
   27.3608  -17.5995    0.0000 N   0  0
   26.8050  -16.9888    0.0000 N   0  0
   27.2911  -19.0695    0.0000 N   0  0
   28.1128  -19.1516    0.0000 C   0  0
   28.4526  -19.9042    0.0000 C   0  0
   28.5947  -18.4811    0.0000 O   0  0
   27.9677  -20.5702    0.0000 C   0  0
   28.3069  -21.3223    0.0000 C   0  0
   29.1294  -21.4049    0.0000 C   0  0
   29.6116  -20.7294    0.0000 C   0  0
   29.2699  -19.9801    0.0000 C   0  0
   23.1897  -14.8652    0.0000 C   0  0
   23.9050  -14.4545    0.0000 C   0  0
   23.9022  -13.6296    0.0000 C   0  0
   23.1851  -13.2185    0.0000 C   0  0
   22.4691  -13.6386    0.0000 C   0  0
   22.4754  -14.4622    0.0000 C   0  0
   23.1783  -12.3934    0.0000 N   0  3
   22.4618  -11.9829    0.0000 O   0  0
   23.8948  -11.9731    0.0000 O   0  5
   29.7500  -19.3051    0.0000 N   0  3
   29.4061  -18.5544    0.0000 O   0  0
   30.5720  -19.3828    0.0000 O   0  5
   21.7625  -14.8843    0.0000 N   0  3
   21.7697  -15.7101    0.0000 O   0  0
   21.0439  -14.4777    0.0000 O   0  5
  1  2  1  0
  2  3  2  0
  3  4  1  0
  4  5  2  0
  5  6  1  0
  6  7  2  0
  7  2  1  0
  8  9  1  0
  9 10  1  0
 10 11  2  0
 11 12  1  0
 12  8  2  0
  5  8  1  0
 10 13  1  0
 13 14  1  0
 14 15  1  0
 14 16  2  0
 15 17  2  0
 17 18  1  0
 18 19  2  0
 19 20  1  0
 20 21  2  0
 21 15  1  0
  1 22  1  0
 22 23  2  0
 23 24  1  0
 24 25  2  0
 25 26  1  0
 26 27  2  0
 27 22  1  0
 28 29  2  0
 28 30  1  0
 25 28  1  0
 31 32  2  0
 31 33  1  0
 21 31  1  0
 34 35  2  0
 34 36  1  0
 27 34  1  0
M  CHG  6  28   1  30  -1  31   1  33  -1  34   1  36  -1
M  END
> <From>
www.bindingDB.org

> <BindingDB Reactant_set_id>
50289288

> <Ligand InChI>
InChI=1S/C21H12N6O8S/c28-19(15-3-1-2-4-16(15)26(31)32)22-21-24-23-20(36-21)12-5-8-14(9-6-12)35-18-10-7-13(25(29)30)11-17(18)27(33)34/h1-11H,(H,22,24,28)

> <Ligand InChI Key>
BHVMHOUHHAONSX-UHFFFAOYSA-N

> <BindingDB MonomerID>
50057669

> <BindingDB Ligand Name>
CHEMBL3322854

> <Target Name Assigned by Curator or DataSource>
Protein-tyrosine phosphatase 1B

> <Target Source Organism According to Curator or DataSource>
Homo sapiens

> <IC50 (nM)>
4.1

> <Curation/DataSource>
ChEMBL

> <Article DOI>
10.1016/j.bmcl.2014.07.055

> <PMID>
25124112

> <Authors>
Li, Y; Yu, Y; Jin, K; Gao, L; Luo, T; Sheng, L; Shao, X; Li, J

> <Institution>
Liaoning Normal University

> <Link to Ligand in BindingDB>
http://www.bindingdb.org/bind/chemsearch/marvin/MolStructure.jsp?monomerid=50057669

> <Link to Ligand-Target Pair in BindingDB>
http://www.bindingdb.org/jsp/dbsearch/PrimarySearch_ki.jsp?energyterm=kJ/mole&tag=r21&monomerid=50057669&enzyme=Protein-tyrosine+phosphatase+1B&column=ki&startPg=0&Increment=50&submit=Search

> <PubChem CID>
118710356

> <PubChem SID>
103953691

> <ChEMBL ID of Ligand>
CHEMBL30593

> <ZINC ID of Ligand>
ZINC13761893

> <Number of Protein Chains in Target (>
1

> <BindingDB Target Chain Sequence>
MEMEKEFEQIDKSGSWAAIYQDIRHEASDFPCRVAKLPKNKNRNRYRDVSPFDHSRIKLHQEDNDYINASLIKMEEAQRSYILTQGPLPNTCGHFWEMVWEQKSRGVVMLNRVMEKGSLKCAQYWPQKEEKEMIFEDTNLKLTLISEDIKSYYTVRQLELENLTTQETREILHFHYTTWPDFGVPESPASFLNFLFKVRESGSLSPEHGPVVVHCSAGIGRSGTFCLADTCLLLMDKRKDPSSVDIKKVLLEMRKFRMGLIQTADQLRFSYLAVIEGAKFIMGDSSVQDQWKELSHEDLEPPPEHIPPPPRPPKRILEPHNGKCREFFPNHQWVKEETQEDKDCPIKEEKGSPLNAAPYGIESMSQDTEVRSRVVGGSLRGAQAASPAKGEPSLPEKDEDHALSYWKPFLVNMCVATVLTAGAYLCYRFLFNSNT

> <PDB ID(s) of Target Chain>
1BZJ,1G7G,1GFY,1JF7,1KAK,1KAV,1LQF,1NL9,1NNY,1NO6,1NZ7,1OEM,1OEO,1OES,1OET,1OEU,1OEV,1ONY,1ONZ,1PH0,1PXH,1PYN,1Q1M,1Q6J,1Q6M,1Q6N,1Q6P,1Q6S,1Q6T,1QXK,1SUG,1T48,1T49,1T4J,1WAX,1XBO,2AZR,2B07,2BGD,2BGE,2CM2,2CM3,2CM7,2CM8,2CMA,2CMB,2CMC,2CNE,2CNF,2CNG,2CNH,2CNI,2F6T,2F6V,2F6W,2F6Y,2F6Z,2F70,2F71,2FJN,2H4G,2H4K,2HB1,2HNP,2HNQ,2QBP,2QBQ,2QBR,2QBS,2VEU,2VEV,2VEW,2VEX,2VEY,2ZMM,2ZN7,3A5J,3CWE,3D9C,3EAX,3EB1,3EU0,3I7Z,3I80,3SME,4BJO,4I8N,4QBW,4Y14,5K9V,5K9W,5KA0,5KA1,5T19,6B90

> <UniProt (SwissProt) Recommended Name of Target Chain>
Tyrosine-protein phosphatase non-receptor type 1

> <UniProt (SwissProt) Entry Name of Target Chain>
PTN1_HUMAN

> <UniProt (SwissProt) Primary ID of Target Chain>
P18031

> <UniProt (SwissProt) Secondary ID(s) of Target Chain>
Q5TGD8,Q9BQV9,Q9NQQ4

$$$$

  SciTegic10241817252D

 32 35  0  0  0  0            999 V2000
   -0.4474  -14.4608    0.0000 O   0  0
    0.2716  -14.8709    0.0000 C   0  0
    0.2714  -15.6942    0.0000 C   0  0
    0.9872  -16.1044    0.0000 C   0  0
    1.7017  -15.6888    0.0000 C   0  0
    1.6960  -14.8588    0.0000 C   0  0
    0.9795  -14.4524    0.0000 C   0  0
    2.4146  -16.0983    0.0000 C   0  0
    2.5051  -16.9190    0.0000 S   0  0
    3.3137  -17.0865    0.0000 C   0  0
    3.7229  -16.3693    0.0000 N   0  0
    3.1673  -15.7586    0.0000 N   0  0
    3.6534  -17.8392    0.0000 N   0  0
    4.4750  -17.9213    0.0000 C   0  0
    4.8147  -18.6740    0.0000 C   0  0
    4.9570  -17.2508    0.0000 O   0  0
    4.3300  -19.3400    0.0000 C   0  0
    4.6691  -20.0920    0.0000 C   0  0
    5.4915  -20.1747    0.0000 C   0  0
    5.9738  -19.4991    0.0000 C   0  0
    5.6321  -18.7497    0.0000 C   0  0
   -0.4527  -13.6350    0.0000 C   0  0
    0.2672  -13.2243    0.0000 C   0  0
    0.2644  -12.3993    0.0000 C   0  0
   -0.4564  -11.9883    0.0000 C   0  0
   -1.1751  -12.4083    0.0000 C   0  0
   -1.1647  -13.2318    0.0000 C   0  0
   -0.4663  -11.1631    0.0000 N   0  3
   -1.1761  -10.7527    0.0000 O   0  0
    0.2570  -10.7429    0.0000 O   0  5
    5.8323  -20.9269    0.0000 O   0  0
    5.3512  -21.5980    0.0000 C   0  0
  1  2  1  0
  2  3  2  0
  3  4  1  0
  4  5  2  0
  5  6  1  0
  6  7  2  0
  7  2  1  0
  8  9  1  0
  9 10  1  0
 10 11  2  0
 11 12  1  0
 12  8  2  0
  5  8  1  0
 10 13  1  0
 13 14  1  0
 14 15  1  0
 14 16  2  0
 15 17  2  0
 17 18  1  0
 18 19  2  0
 19 20  1  0
 20 21  2  0
 21 15  1  0
  1 22  1  0
 22 23  2  0
 23 24  1  0
 24 25  2  0
 25 26  1  0
 26 27  2  0
 27 22  1  0
 28 29  2  0
 28 30  1  0
 25 28  1  0
 19 31  1  0
 31 32  1  0
M  CHG  2  28   1  30  -1
M  END
> <From>
www.bindingDB.org

> <BindingDB Reactant_set_id>
50289198

> <Ligand InChI>
InChI=1S/C22H16N4O5S/c1-30-17-8-2-14(3-9-17)20(27)23-22-25-24-21(32-22)15-4-10-18(11-5-15)31-19-12-6-16(7-13-19)26(28)29/h2-13H,1H3,(H,23,25,27)

> <Ligand InChI Key>
RNDWWZYDJMUEMW-UHFFFAOYSA-N

> <BindingDB MonomerID>
50057655

> <BindingDB Ligand Name>
CHEMBL3322829

> <Target Name Assigned by Curator or DataSource>
Protein-tyrosine phosphatase 1B

> <Target Source Organism According to Curator or DataSource>
Homo sapiens

> <IC50 (nM)>
4.1

> <Curation/DataSource>
ChEMBL

> <Article DOI>
10.1016/j.bmcl.2014.07.055

> <PMID>
25124112

> <Authors>
Li, Y; Yu, Y; Jin, K; Gao, L; Luo, T; Sheng, L; Shao, X; Li, J

> <Institution>
Liaoning Normal University

> <Link to Ligand in BindingDB>
http://www.bindingdb.org/bind/chemsearch/marvin/MolStructure.jsp?monomerid=50057655

> <Link to Ligand-Target Pair in BindingDB>
http://www.bindingdb.org/jsp/dbsearch/PrimarySearch_ki.jsp?energyterm=kJ/mole&tag=r21&monomerid=50057655&enzyme=Protein-tyrosine+phosphatase+1B&column=ki&startPg=0&Increment=50&submit=Search

> <PubChem CID>
118710330

> <PubChem SID>
313070344

> <Number of Protein Chains in Target (>
1

> <BindingDB Target Chain Sequence>
MEMEKEFEQIDKSGSWAAIYQDIRHEASDFPCRVAKLPKNKNRNRYRDVSPFDHSRIKLHQEDNDYINASLIKMEEAQRSYILTQGPLPNTCGHFWEMVWEQKSRGVVMLNRVMEKGSLKCAQYWPQKEEKEMIFEDTNLKLTLISEDIKSYYTVRQLELENLTTQETREILHFHYTTWPDFGVPESPASFLNFLFKVRESGSLSPEHGPVVVHCSAGIGRSGTFCLADTCLLLMDKRKDPSSVDIKKVLLEMRKFRMGLIQTADQLRFSYLAVIEGAKFIMGDSSVQDQWKELSHEDLEPPPEHIPPPPRPPKRILEPHNGKCREFFPNHQWVKEETQEDKDCPIKEEKGSPLNAAPYGIESMSQDTEVRSRVVGGSLRGAQAASPAKGEPSLPEKDEDHALSYWKPFLVNMCVATVLTAGAYLCYRFLFNSNT

> <PDB ID(s) of Target Chain>
1BZJ,1G7G,1GFY,1JF7,1KAK,1KAV,1LQF,1NL9,1NNY,1NO6,1NZ7,1OEM,1OEO,1OES,1OET,1OEU,1OEV,1ONY,1ONZ,1PH0,1PXH,1PYN,1Q1M,1Q6J,1Q6M,1Q6N,1Q6P,1Q6S,1Q6T,1QXK,1SUG,1T48,1T49,1T4J,1WAX,1XBO,2AZR,2B07,2BGD,2BGE,2CM2,2CM3,2CM7,2CM8,2CMA,2CMB,2CMC,2CNE,2CNF,2CNG,2CNH,2CNI,2F6T,2F6V,2F6W,2F6Y,2F6Z,2F70,2F71,2FJN,2H4G,2H4K,2HB1,2HNP,2HNQ,2QBP,2QBQ,2QBR,2QBS,2VEU,2VEV,2VEW,2VEX,2VEY,2ZMM,2ZN7,3A5J,3CWE,3D9C,3EAX,3EB1,3EU0,3I7Z,3I80,3SME,4BJO,4I8N,4QBW,4Y14,5K9V,5K9W,5KA0,5KA1,5T19,6B90

> <UniProt (SwissProt) Recommended Name of Target Chain>
Tyrosine-protein phosphatase non-receptor type 1

> <UniProt (SwissProt) Entry Name of Target Chain>
PTN1_HUMAN

> <UniProt (SwissProt) Primary ID of Target Chain>
P18031

> <UniProt (SwissProt) Secondary ID(s) of Target Chain>
Q5TGD8,Q9BQV9,Q9NQQ4

$$$$

  SciTegic10241817252D

 30 33  0  0  0  0            999 V2000
   -0.8806   -4.6572    0.0000 O   0  0
   -0.1631   -5.0671    0.0000 C   0  0
   -0.1629   -5.8900    0.0000 C   0  0
    0.5532   -6.2998    0.0000 C   0  0
    1.2672   -5.8844    0.0000 C   0  0
    1.2614   -5.0550    0.0000 C   0  0
    0.5455   -4.6489    0.0000 C   0  0
    1.9796   -6.2937    0.0000 C   0  0
    2.0701   -7.1138    0.0000 S   0  0
    2.8781   -7.2813    0.0000 C   0  0
    3.2871   -6.5645    0.0000 N   0  0
    2.7317   -5.9542    0.0000 N   0  0
    3.2176   -8.0335    0.0000 N   0  0
    4.0386   -8.1156    0.0000 C   0  0
    4.3781   -8.8676    0.0000 C   0  0
    4.5203   -7.4455    0.0000 O   0  0
    3.8937   -9.5332    0.0000 C   0  0
    4.2325  -10.2848    0.0000 C   0  0
    5.0545  -10.3674    0.0000 C   0  0
    5.5365   -9.6923    0.0000 C   0  0
    5.1949   -8.9434    0.0000 C   0  0
   -0.8858   -3.8320    0.0000 C   0  0
   -0.1670   -3.4216    0.0000 C   0  0
   -0.1726   -2.5972    0.0000 C   0  0
   -0.8895   -2.1864    0.0000 C   0  0
   -1.6078   -2.6062    0.0000 C   0  0
   -1.5974   -3.4292    0.0000 C   0  0
   -0.8994   -1.3618    0.0000 N   0  3
   -1.6087   -0.9516    0.0000 O   0  0
   -0.1818   -0.9418    0.0000 O   0  5
  1  2  1  0
  2  3  2  0
  3  4  1  0
  4  5  2  0
  5  6  1  0
  6  7  2  0
  7  2  1  0
  8  9  1  0
  9 10  1  0
 10 11  2  0
 11 12  1  0
 12  8  2  0
  5  8  1  0
 10 13  1  0
 13 14  1  0
 14 15  1  0
 14 16  2  0
 15 17  2  0
 17 18  1  0
 18 19  2  0
 19 20  1  0
 20 21  2  0
 21 15  1  0
  1 22  1  0
 22 23  2  0
 23 24  1  0
 24 25  2  0
 25 26  1  0
 26 27  2  0
 27 22  1  0
 28 29  2  0
 28 30  1  0
 25 28  1  0
M  CHG  2  28   1  30  -1
M  END
> <From>
www.bindingDB.org

> <BindingDB Reactant_set_id>
50289181

> <Ligand InChI>
InChI=1S/C21H14N4O4S/c26-19(14-4-2-1-3-5-14)22-21-24-23-20(30-21)15-6-10-17(11-7-15)29-18-12-8-16(9-13-18)25(27)28/h1-13H,(H,22,24,26)

> <Ligand InChI Key>
UQMRTZPLCUQSOD-UHFFFAOYSA-N

> <BindingDB MonomerID>
50057653

> <BindingDB Ligand Name>
CHEMBL3322833

> <Target Name Assigned by Curator or DataSource>
Protein-tyrosine phosphatase 1B

> <Target Source Organism According to Curator or DataSource>
Homo sapiens

> <IC50 (nM)>
4.1

> <Curation/DataSource>
ChEMBL

> <Article DOI>
10.1016/j.bmcl.2014.07.055

> <PMID>
25124112

> <Authors>
Li, Y; Yu, Y; Jin, K; Gao, L; Luo, T; Sheng, L; Shao, X; Li, J

> <Institution>
Liaoning Normal University

> <Link to Ligand in BindingDB>
http://www.bindingdb.org/bind/chemsearch/marvin/MolStructure.jsp?monomerid=50057653

> <Link to Ligand-Target Pair in BindingDB>
http://www.bindingdb.org/jsp/dbsearch/PrimarySearch_ki.jsp?energyterm=kJ/mole&tag=r21&monomerid=50057653&enzyme=Protein-tyrosine+phosphatase+1B&column=ki&startPg=0&Increment=50&submit=Search

> <PubChem CID>
118710335

> <PubChem SID>
313070342

> <Number of Protein Chains in Target (>
1

> <BindingDB Target Chain Sequence>
MEMEKEFEQIDKSGSWAAIYQDIRHEASDFPCRVAKLPKNKNRNRYRDVSPFDHSRIKLHQEDNDYINASLIKMEEAQRSYILTQGPLPNTCGHFWEMVWEQKSRGVVMLNRVMEKGSLKCAQYWPQKEEKEMIFEDTNLKLTLISEDIKSYYTVRQLELENLTTQETREILHFHYTTWPDFGVPESPASFLNFLFKVRESGSLSPEHGPVVVHCSAGIGRSGTFCLADTCLLLMDKRKDPSSVDIKKVLLEMRKFRMGLIQTADQLRFSYLAVIEGAKFIMGDSSVQDQWKELSHEDLEPPPEHIPPPPRPPKRILEPHNGKCREFFPNHQWVKEETQEDKDCPIKEEKGSPLNAAPYGIESMSQDTEVRSRVVGGSLRGAQAASPAKGEPSLPEKDEDHALSYWKPFLVNMCVATVLTAGAYLCYRFLFNSNT

> <PDB ID(s) of Target Chain>
1BZJ,1G7G,1GFY,1JF7,1KAK,1KAV,1LQF,1NL9,1NNY,1NO6,1NZ7,1OEM,1OEO,1OES,1OET,1OEU,1OEV,1ONY,1ONZ,1PH0,1PXH,1PYN,1Q1M,1Q6J,1Q6M,1Q6N,1Q6P,1Q6S,1Q6T,1QXK,1SUG,1T48,1T49,1T4J,1WAX,1XBO,2AZR,2B07,2BGD,2BGE,2CM2,2CM3,2CM7,2CM8,2CMA,2CMB,2CMC,2CNE,2CNF,2CNG,2CNH,2CNI,2F6T,2F6V,2F6W,2F6Y,2F6Z,2F70,2F71,2FJN,2H4G,2H4K,2HB1,2HNP,2HNQ,2QBP,2QBQ,2QBR,2QBS,2VEU,2VEV,2VEW,2VEX,2VEY,2ZMM,2ZN7,3A5J,3CWE,3D9C,3EAX,3EB1,3EU0,3I7Z,3I80,3SME,4BJO,4I8N,4QBW,4Y14,5K9V,5K9W,5KA0,5KA1,5T19,6B90

> <UniProt (SwissProt) Recommended Name of Target Chain>
Tyrosine-protein phosphatase non-receptor type 1

> <UniProt (SwissProt) Entry Name of Target Chain>
PTN1_HUMAN

> <UniProt (SwissProt) Primary ID of Target Chain>
P18031

> <UniProt (SwissProt) Secondary ID(s) of Target Chain>
Q5TGD8,Q9BQV9,Q9NQQ4

$$$$

  SciTegic10241817252D

 30 33  0  0  0  0            999 V2000
   16.2991  -25.8667    0.0000 O   0  0
   17.0158  -26.2769    0.0000 C   0  0
   17.0155  -27.1003    0.0000 C   0  0
   17.7313  -27.5104    0.0000 C   0  0
   18.4459  -27.0947    0.0000 C   0  0
   18.4400  -26.2647    0.0000 C   0  0
   17.7237  -25.8584    0.0000 C   0  0
   19.1588  -27.5043    0.0000 C   0  0
   19.2492  -28.3250    0.0000 S   0  0
   20.0578  -28.4926    0.0000 C   0  0
   20.4671  -27.7754    0.0000 N   0  0
   19.9114  -27.1646    0.0000 N   0  0
   20.3975  -29.2452    0.0000 N   0  0
   21.2192  -29.3273    0.0000 C   0  0
   21.5589  -30.0800    0.0000 C   0  0
   21.7011  -28.6569    0.0000 O   0  0
   16.2960  -25.0410    0.0000 C   0  0
   17.0114  -24.6303    0.0000 C   0  0
   17.0085  -23.8053    0.0000 C   0  0
   16.2913  -23.3943    0.0000 C   0  0
   15.5755  -23.8143    0.0000 C   0  0
   15.5818  -24.6379    0.0000 C   0  0
   16.2846  -22.5691    0.0000 N   0  3
   15.5681  -22.1586    0.0000 O   0  0
   17.0010  -22.1489    0.0000 O   0  5
   21.0741  -30.7459    0.0000 C   0  0
   21.4132  -31.4980    0.0000 C   0  0
   22.2356  -31.5806    0.0000 C   0  0
   22.7179  -30.9051    0.0000 N   0  0
   22.3763  -30.1558    0.0000 C   0  0
  1  2  1  0
  2  3  2  0
  3  4  1  0
  4  5  2  0
  5  6  1  0
  6  7  2  0
  7  2  1  0
  8  9  1  0
  9 10  1  0
 10 11  2  0
 11 12  1  0
 12  8  2  0
  5  8  1  0
 10 13  1  0
 13 14  1  0
 14 15  1  0
 14 16  2  0
  1 17  1  0
 17 18  2  0
 18 19  1  0
 19 20  2  0
 20 21  1  0
 21 22  2  0
 22 17  1  0
 23 24  2  0
 23 25  1  0
 20 23  1  0
 15 26  2  0
 26 27  1  0
 27 28  2  0
 28 29  1  0
 29 30  2  0
 30 15  1  0
M  CHG  2  23   1  25  -1
M  END
> <From>
www.bindingDB.org

> <BindingDB Reactant_set_id>
50289277

> <Ligand InChI>
InChI=1S/C20H13N5O4S/c26-18(14-2-1-11-21-12-14)22-20-24-23-19(30-20)13-3-7-16(8-4-13)29-17-9-5-15(6-10-17)25(27)28/h1-12H,(H,22,24,26)

> <Ligand InChI Key>
GGQUYIVNRPCMGS-UHFFFAOYSA-N

> <BindingDB MonomerID>
50057661

> <BindingDB Ligand Name>
CHEMBL3322842

> <Target Name Assigned by Curator or DataSource>
Protein-tyrosine phosphatase 1B

> <Target Source Organism According to Curator or DataSource>
Homo sapiens

> <IC50 (nM)>
4.2

> <Curation/DataSource>
ChEMBL

> <Article DOI>
10.1016/j.bmcl.2014.07.055

> <PMID>
25124112

> <Authors>
Li, Y; Yu, Y; Jin, K; Gao, L; Luo, T; Sheng, L; Shao, X; Li, J

> <Institution>
Liaoning Normal University

> <Link to Ligand in BindingDB>
http://www.bindingdb.org/bind/chemsearch/marvin/MolStructure.jsp?monomerid=50057661

> <Link to Ligand-Target Pair in BindingDB>
http://www.bindingdb.org/jsp/dbsearch/PrimarySearch_ki.jsp?energyterm=kJ/mole&tag=r21&monomerid=50057661&enzyme=Protein-tyrosine+phosphatase+1B&column=ki&startPg=0&Increment=50&submit=Search

> <PubChem CID>
118710344

> <PubChem SID>
313070349

> <Number of Protein Chains in Target (>
1

> <BindingDB Target Chain Sequence>
MEMEKEFEQIDKSGSWAAIYQDIRHEASDFPCRVAKLPKNKNRNRYRDVSPFDHSRIKLHQEDNDYINASLIKMEEAQRSYILTQGPLPNTCGHFWEMVWEQKSRGVVMLNRVMEKGSLKCAQYWPQKEEKEMIFEDTNLKLTLISEDIKSYYTVRQLELENLTTQETREILHFHYTTWPDFGVPESPASFLNFLFKVRESGSLSPEHGPVVVHCSAGIGRSGTFCLADTCLLLMDKRKDPSSVDIKKVLLEMRKFRMGLIQTADQLRFSYLAVIEGAKFIMGDSSVQDQWKELSHEDLEPPPEHIPPPPRPPKRILEPHNGKCREFFPNHQWVKEETQEDKDCPIKEEKGSPLNAAPYGIESMSQDTEVRSRVVGGSLRGAQAASPAKGEPSLPEKDEDHALSYWKPFLVNMCVATVLTAGAYLCYRFLFNSNT

> <PDB ID(s) of Target Chain>
1BZJ,1G7G,1GFY,1JF7,1KAK,1KAV,1LQF,1NL9,1NNY,1NO6,1NZ7,1OEM,1OEO,1OES,1OET,1OEU,1OEV,1ONY,1ONZ,1PH0,1PXH,1PYN,1Q1M,1Q6J,1Q6M,1Q6N,1Q6P,1Q6S,1Q6T,1QXK,1SUG,1T48,1T49,1T4J,1WAX,1XBO,2AZR,2B07,2BGD,2BGE,2CM2,2CM3,2CM7,2CM8,2CMA,2CMB,2CMC,2CNE,2CNF,2CNG,2CNH,2CNI,2F6T,2F6V,2F6W,2F6Y,2F6Z,2F70,2F71,2FJN,2H4G,2H4K,2HB1,2HNP,2HNQ,2QBP,2QBQ,2QBR,2QBS,2VEU,2VEV,2VEW,2VEX,2VEY,2ZMM,2ZN7,3A5J,3CWE,3D9C,3EAX,3EB1,3EU0,3I7Z,3I80,3SME,4BJO,4I8N,4QBW,4Y14,5K9V,5K9W,5KA0,5KA1,5T19,6B90

> <UniProt (SwissProt) Recommended Name of Target Chain>
Tyrosine-protein phosphatase non-receptor type 1

> <UniProt (SwissProt) Entry Name of Target Chain>
PTN1_HUMAN

> <UniProt (SwissProt) Primary ID of Target Chain>
P18031

> <UniProt (SwissProt) Secondary ID(s) of Target Chain>
Q5TGD8,Q9BQV9,Q9NQQ4

$$$$

  SciTegic10241817252D

 33 36  0  0  0  0            999 V2000
   26.3907  -16.1243    0.0000 O   0  0
   27.1074  -16.5344    0.0000 C   0  0
   27.1071  -17.3578    0.0000 C   0  0
   27.8229  -17.7679    0.0000 C   0  0
   28.5375  -17.3522    0.0000 C   0  0
   28.5316  -16.5223    0.0000 C   0  0
   27.8154  -16.1160    0.0000 C   0  0
   29.2503  -17.7618    0.0000 C   0  0
   29.3408  -18.5825    0.0000 S   0  0
   30.1493  -18.7501    0.0000 C   0  0
   30.5586  -18.0329    0.0000 N   0  0
   30.0029  -17.4222    0.0000 N   0  0
   30.4891  -19.5026    0.0000 N   0  0
   31.3107  -19.5848    0.0000 C   0  0
   31.6503  -20.3374    0.0000 C   0  0
   31.7926  -18.9143    0.0000 O   0  0
   31.1656  -21.0033    0.0000 C   0  0
   31.5047  -21.7554    0.0000 C   0  0
   32.3271  -21.8380    0.0000 C   0  0
   32.8094  -21.1626    0.0000 C   0  0
   32.4677  -20.4132    0.0000 C   0  0
   26.3876  -15.2985    0.0000 C   0  0
   27.1029  -14.8879    0.0000 C   0  0
   27.1002  -14.0629    0.0000 C   0  0
   26.3830  -13.6519    0.0000 C   0  0
   25.6671  -14.0719    0.0000 C   0  0
   25.6734  -14.8955    0.0000 C   0  0
   26.3763  -12.8267    0.0000 N   0  3
   25.6598  -12.4163    0.0000 O   0  0
   27.0927  -12.4066    0.0000 O   0  5
   32.9477  -19.7384    0.0000 N   0  3
   32.6040  -18.9876    0.0000 O   0  0
   33.7698  -19.8160    0.0000 O   0  5
  1  2  1  0
  2  3  2  0
  3  4  1  0
  4  5  2  0
  5  6  1  0
  6  7  2  0
  7  2  1  0
  8  9  1  0
  9 10  1  0
 10 11  2  0
 11 12  1  0
 12  8  2  0
  5  8  1  0
 10 13  1  0
 13 14  1  0
 14 15  1  0
 14 16  2  0
 15 17  2  0
 17 18  1  0
 18 19  2  0
 19 20  1  0
 20 21  2  0
 21 15  1  0
  1 22  1  0
 22 23  2  0
 23 24  1  0
 24 25  2  0
 25 26  1  0
 26 27  2  0
 27 22  1  0
 28 29  2  0
 28 30  1  0
 25 28  1  0
 31 32  2  0
 31 33  1  0
 21 31  1  0
M  CHG  4  28   1  30  -1  31   1  33  -1
M  END
> <From>
www.bindingDB.org

> <BindingDB Reactant_set_id>
50289254

> <Ligand InChI>
InChI=1S/C21H13N5O6S/c27-19(17-3-1-2-4-18(17)26(30)31)22-21-24-23-20(33-21)13-5-9-15(10-6-13)32-16-11-7-14(8-12-16)25(28)29/h1-12H,(H,22,24,27)

> <Ligand InChI Key>
ASCPHIRAARYIGT-UHFFFAOYSA-N

> <BindingDB MonomerID>
50057709

> <BindingDB Ligand Name>
CHEMBL3322838

> <Target Name Assigned by Curator or DataSource>
Protein-tyrosine phosphatase 1B

> <Target Source Organism According to Curator or DataSource>
Homo sapiens

> <IC50 (nM)>
4.3

> <Curation/DataSource>
ChEMBL

> <Article DOI>
10.1016/j.bmcl.2014.07.055

> <PMID>
25124112

> <Authors>
Li, Y; Yu, Y; Jin, K; Gao, L; Luo, T; Sheng, L; Shao, X; Li, J

> <Institution>
Liaoning Normal University

> <Link to Ligand in BindingDB>
http://www.bindingdb.org/bind/chemsearch/marvin/MolStructure.jsp?monomerid=50057709

> <Link to Ligand-Target Pair in BindingDB>
http://www.bindingdb.org/jsp/dbsearch/PrimarySearch_ki.jsp?energyterm=kJ/mole&tag=r21&monomerid=50057709&enzyme=Protein-tyrosine+phosphatase+1B&column=ki&startPg=0&Increment=50&submit=Search

> <PubChem CID>
118710340

> <PubChem SID>
103953731

> <ZINC ID of Ligand>
ZINC38155625

> <Number of Protein Chains in Target (>
1

> <BindingDB Target Chain Sequence>
MEMEKEFEQIDKSGSWAAIYQDIRHEASDFPCRVAKLPKNKNRNRYRDVSPFDHSRIKLHQEDNDYINASLIKMEEAQRSYILTQGPLPNTCGHFWEMVWEQKSRGVVMLNRVMEKGSLKCAQYWPQKEEKEMIFEDTNLKLTLISEDIKSYYTVRQLELENLTTQETREILHFHYTTWPDFGVPESPASFLNFLFKVRESGSLSPEHGPVVVHCSAGIGRSGTFCLADTCLLLMDKRKDPSSVDIKKVLLEMRKFRMGLIQTADQLRFSYLAVIEGAKFIMGDSSVQDQWKELSHEDLEPPPEHIPPPPRPPKRILEPHNGKCREFFPNHQWVKEETQEDKDCPIKEEKGSPLNAAPYGIESMSQDTEVRSRVVGGSLRGAQAASPAKGEPSLPEKDEDHALSYWKPFLVNMCVATVLTAGAYLCYRFLFNSNT

> <PDB ID(s) of Target Chain>
1BZJ,1G7G,1GFY,1JF7,1KAK,1KAV,1LQF,1NL9,1NNY,1NO6,1NZ7,1OEM,1OEO,1OES,1OET,1OEU,1OEV,1ONY,1ONZ,1PH0,1PXH,1PYN,1Q1M,1Q6J,1Q6M,1Q6N,1Q6P,1Q6S,1Q6T,1QXK,1SUG,1T48,1T49,1T4J,1WAX,1XBO,2AZR,2B07,2BGD,2BGE,2CM2,2CM3,2CM7,2CM8,2CMA,2CMB,2CMC,2CNE,2CNF,2CNG,2CNH,2CNI,2F6T,2F6V,2F6W,2F6Y,2F6Z,2F70,2F71,2FJN,2H4G,2H4K,2HB1,2HNP,2HNQ,2QBP,2QBQ,2QBR,2QBS,2VEU,2VEV,2VEW,2VEX,2VEY,2ZMM,2ZN7,3A5J,3CWE,3D9C,3EAX,3EB1,3EU0,3I7Z,3I80,3SME,4BJO,4I8N,4QBW,4Y14,5K9V,5K9W,5KA0,5KA1,5T19,6B90

> <UniProt (SwissProt) Recommended Name of Target Chain>
Tyrosine-protein phosphatase non-receptor type 1

> <UniProt (SwissProt) Entry Name of Target Chain>
PTN1_HUMAN

> <UniProt (SwissProt) Primary ID of Target Chain>
P18031

> <UniProt (SwissProt) Secondary ID(s) of Target Chain>
Q5TGD8,Q9BQV9,Q9NQQ4

$$$$

  SciTegic10241817252D

 29 31  0  0  0  0            999 V2000
   -0.5515   -0.8323    0.0000 C   0  0
   -0.5515    0.8323    0.0000 C   0  0
   -1.2735    0.4111    0.0000 C   0  0
   -1.2735   -0.4111    0.0000 C   0  0
   -0.5484   -1.6576    0.0000 O   0  0
   -1.1185   -1.9901    0.0000 C   0  0
   -0.5484    1.6576    0.0000 C   0  0
    0.0245    1.9852    0.0000 O   0  0
   -1.2614    2.0735    0.0000 C   0  0
   -1.2583    2.8989    0.0000 C   0  0
   -1.9713    3.3148    0.0000 C   0  0
   -1.9694    4.1398    0.0000 C   0  0
   -2.6828    4.5540    0.0000 C   0  0
   -3.3983    4.1432    0.0000 C   0  0
   -3.4003    3.3183    0.0000 C   0  0
   -2.6868    2.9040    0.0000 C   0  0
   -3.9691    4.4747    0.0000 O   0  0
    0.1604    0.4111    0.0000 C   0  0
    0.1604   -0.4111    0.0000 C   0  0
    0.9426   -0.6618    0.0000 C   0  0
    1.4239    0.0100    0.0000 C   0  0
    0.9426    0.6618    0.0000 O   0  0
    1.2020   -1.4440    0.0000 O   0  0
    2.0104   -1.6112    0.0000 C   0  0
    2.2181   -2.2376    0.0000 C   0  0
    2.2480    0.0193    0.0000 C   0  0
    2.5712    0.5947    0.0000 C   0  0
    2.9079    0.0272    0.0000 C   0  0
    2.5848   -0.5482    0.0000 O   0  0
  1 19  2  0
 18  2  2  0
  2  3  1  0
  3  4  2  0
  4  1  1  0
  1  5  1  0
  5  6  1  0
  2  7  1  0
  7  8  2  0
  7  9  1  0
  9 10  2  0
 10 11  1  0
 11 12  2  0
 12 13  1  0
 13 14  2  0
 14 15  1  0
 15 16  2  0
 16 11  1  0
 14 17  1  0
 18 19  1  0
 19 20  1  0
 20 21  1  0
 21 22  1  0
 22 18  1  0
 20 23  1  0
 23 24  1  0
 24 25  1  0
 21 26  1  0
 26 27  1  0
 26 28  1  0
 26 29  1  0
M  END
> <From>
www.bindingDB.org

> <BindingDB Reactant_set_id>
50308831

> <Ligand InChI>
InChI=1/C23H26O6/c1-5-28-21-19-18(27-4)13-11-16(20(19)29-22(21)23(2,3)26)17(25)12-8-14-6-9-15(24)10-7-14/h6-13,21-22,24,26H,5H2,1-4H3/b12-8+

> <Ligand InChI Key>
MTFSPOOVZVACDU-XYOKQWHBNA-N

> <BindingDB MonomerID>
50069689

> <BindingDB Ligand Name>
CHEMBL3402550

> <Target Name Assigned by Curator or DataSource>
Protein-tyrosine phosphatase 1B

> <Target Source Organism According to Curator or DataSource>
Homo sapiens

> <IC50 (nM)>
4.4

> <Curation/DataSource>
ChEMBL

> <Article DOI>
10.1016/j.bmcl.2015.04.003

> <PMID>
25891102

> <Authors>
Li, JL; Gao, LX; Meng, FW; Tang, CL; Zhang, RJ; Li, JY; Luo, C; Li, J; Zhao, WM

> <Institution>
Chinese Academy of Sciences

> <Link to Ligand in BindingDB>
http://www.bindingdb.org/bind/chemsearch/marvin/MolStructure.jsp?monomerid=50069689

> <Link to Ligand-Target Pair in BindingDB>
http://www.bindingdb.org/jsp/dbsearch/PrimarySearch_ki.jsp?energyterm=kJ/mole&tag=r21&monomerid=50069689&enzyme=Protein-tyrosine+phosphatase+1B&column=ki&startPg=0&Increment=50&submit=Search

> <PubChem CID>
118729167

> <PubChem SID>
103963725

> <ChEMBL ID of Ligand>
CHEMBL553628

> <ZINC ID of Ligand>
ZINC27758495

> <Number of Protein Chains in Target (>
1

> <BindingDB Target Chain Sequence>
MEMEKEFEQIDKSGSWAAIYQDIRHEASDFPCRVAKLPKNKNRNRYRDVSPFDHSRIKLHQEDNDYINASLIKMEEAQRSYILTQGPLPNTCGHFWEMVWEQKSRGVVMLNRVMEKGSLKCAQYWPQKEEKEMIFEDTNLKLTLISEDIKSYYTVRQLELENLTTQETREILHFHYTTWPDFGVPESPASFLNFLFKVRESGSLSPEHGPVVVHCSAGIGRSGTFCLADTCLLLMDKRKDPSSVDIKKVLLEMRKFRMGLIQTADQLRFSYLAVIEGAKFIMGDSSVQDQWKELSHEDLEPPPEHIPPPPRPPKRILEPHNGKCREFFPNHQWVKEETQEDKDCPIKEEKGSPLNAAPYGIESMSQDTEVRSRVVGGSLRGAQAASPAKGEPSLPEKDEDHALSYWKPFLVNMCVATVLTAGAYLCYRFLFNSNT

> <PDB ID(s) of Target Chain>
1BZJ,1G7G,1GFY,1JF7,1KAK,1KAV,1LQF,1NL9,1NNY,1NO6,1NZ7,1OEM,1OEO,1OES,1OET,1OEU,1OEV,1ONY,1ONZ,1PH0,1PXH,1PYN,1Q1M,1Q6J,1Q6M,1Q6N,1Q6P,1Q6S,1Q6T,1QXK,1SUG,1T48,1T49,1T4J,1WAX,1XBO,2AZR,2B07,2BGD,2BGE,2CM2,2CM3,2CM7,2CM8,2CMA,2CMB,2CMC,2CNE,2CNF,2CNG,2CNH,2CNI,2F6T,2F6V,2F6W,2F6Y,2F6Z,2F70,2F71,2FJN,2H4G,2H4K,2HB1,2HNP,2HNQ,2QBP,2QBQ,2QBR,2QBS,2VEU,2VEV,2VEW,2VEX,2VEY,2ZMM,2ZN7,3A5J,3CWE,3D9C,3EAX,3EB1,3EU0,3I7Z,3I80,3SME,4BJO,4I8N,4QBW,4Y14,5K9V,5K9W,5KA0,5KA1,5T19,6B90

> <UniProt (SwissProt) Recommended Name of Target Chain>
Tyrosine-protein phosphatase non-receptor type 1

> <UniProt (SwissProt) Entry Name of Target Chain>
PTN1_HUMAN

> <UniProt (SwissProt) Primary ID of Target Chain>
P18031

> <UniProt (SwissProt) Secondary ID(s) of Target Chain>
Q5TGD8,Q9BQV9,Q9NQQ4

$$$$

  SciTegic10241817252D

 19 21  0  0  0  0            999 V2000
   29.4937   -8.0593    0.0000 C   0  0
   29.4937   -8.8843    0.0000 O   0  0
   30.2057   -9.2927    0.0000 C   0  0
   30.2057   -7.6426    0.0000 C   0  0
   30.9178   -8.0593    0.0000 C   0  0
   30.9142   -8.8843    0.0000 C   0  0
   31.6230   -9.2975    0.0000 N   0  0
   32.3398   -8.8904    0.0000 N   0  0
   32.3433   -8.0654    0.0000 C   0  0
   31.6300   -7.6476    0.0000 C   0  0
   33.0475   -9.3050    0.0000 C   0  0
   33.0409  -10.1309    0.0000 C   0  0
   33.7489  -10.5473    0.0000 C   0  0
   34.4681  -10.1424    0.0000 C   0  0
   34.4748   -9.3164    0.0000 C   0  0
   33.7622   -8.8954    0.0000 C   0  0
   31.6361   -6.8238    0.0000 C   0  0
   31.6385   -5.9988    0.0000 N   0  0
   33.0600   -7.6566    0.0000 N   0  0
  1  2  1  0
  1  4  1  0
  2  3  1  0
  3  6  1  0
  5  4  1  0
  5  6  1  0
  5 10  2  0
  6  7  2  0
  7  8  1  0
  8  9  1  0
  9 10  1  0
 11 12  2  0
 11 16  1  0
 12 13  1  0
 13 14  2  0
 14 15  1  0
 15 16  2  0
  8 11  1  0
 17 18  3  0
 10 17  1  0
  9 19  2  0
M  END
> <From>
www.bindingDB.org

> <BindingDB Reactant_set_id>
51075609

> <Ligand InChI>
InChI=1S/C14H12N4O/c15-8-12-11-6-7-19-9-13(11)17-18(14(12)16)10-4-2-1-3-5-10/h1-5,16H,6-7,9H2

> <Ligand InChI Key>
GWGKZWHKBUGZQH-UHFFFAOYSA-N

> <BindingDB MonomerID>
50439959

> <BindingDB Ligand Name>
CHEMBL2424687

> <Target Name Assigned by Curator or DataSource>
Protein-tyrosine phosphatase 1B (PTP1B)

> <Target Source Organism According to Curator or DataSource>
Homo sapiens

> <IC50 (nM)>
350

> <Curation/DataSource>
ChEMBL

> <Article DOI>
10.1007/s00044-013-0797-8

> <Authors>
n/a

> <Institution>
n/a

> <Link to Ligand in BindingDB>
http://www.bindingdb.org/bind/chemsearch/marvin/MolStructure.jsp?monomerid=50439959

> <Link to Ligand-Target Pair in BindingDB>
http://www.bindingdb.org/jsp/dbsearch/PrimarySearch_ki.jsp?energyterm=kJ/mole&tag=r21&monomerid=50439959&enzyme=Protein-tyrosine+phosphatase+1B+%28PTP1B%29&column=ki&startPg=0&Increment=50&submit=Search

> <PubChem CID>
91311876

> <PubChem SID>
175452276

> <ChEMBL ID of Ligand>
CHEMBL2424687

> <ZINC ID of Ligand>
ZINC13838636

> <Number of Protein Chains in Target (>
1

> <BindingDB Target Chain Sequence>
MEMEKEFEQIDKSGSWAAIYQDIRHEASDFPCRVAKLPKNKNRNRYRDVSPFDHSRIKLHQEDNDYINASLIKMEEAQRSYILTQGPLPNTCGHFWEMVWEQKSRGVVMLNRVMEKGSLKCAQYWPQKEEKEMIFEDTNLKLTLISEDIKSYYTVRQLELENLTTQETREILHFHYTTWPDFGVPESPASFLNFLFKVRESGSLSPEHGPVVVHCSAGIGRSGTFCLADTCLLLMDKRKDPSSVDIKKVLLEMRKFRMGLIQTADQLRFSYLAVIEGAKFIMGDSSVQDQWKELSHEDLEPPPEHIPPPPRPPKRILEPHNGKCREFFPNHQWVKEETQEDKDCPIKEEKGSPLNAAPYGIESMSQDTEVRSRVVGGSLRGAQAASPAKGEPSLPEKDEDHALSYWKPFLVNMCVATVLTAGAYLCYRFLFNSNT

> <PDB ID(s) of Target Chain>
1BZJ,1G7G,1GFY,1JF7,1KAK,1KAV,1LQF,1NL9,1NNY,1NO6,1NZ7,1OEM,1OEO,1OES,1OET,1OEU,1OEV,1ONY,1ONZ,1PH0,1PXH,1PYN,1Q1M,1Q6J,1Q6M,1Q6N,1Q6P,1Q6S,1Q6T,1QXK,1SUG,1T48,1T49,1T4J,1WAX,1XBO,2AZR,2B07,2BGD,2BGE,2CM2,2CM3,2CM7,2CM8,2CMA,2CMB,2CMC,2CNE,2CNF,2CNG,2CNH,2CNI,2F6T,2F6V,2F6W,2F6Y,2F6Z,2F70,2F71,2FJN,2H4G,2H4K,2HB1,2HNP,2HNQ,2QBP,2QBQ,2QBR,2QBS,2VEU,2VEV,2VEW,2VEX,2VEY,2ZMM,2ZN7,3A5J,3CWE,3D9C,3EAX,3EB1,3EU0,3I7Z,3I80,3SME,4BJO,4I8N,4QBW,4Y14

> <UniProt (SwissProt) Recommended Name of Target Chain>
Tyrosine-protein phosphatase non-receptor type 1

> <UniProt (SwissProt) Entry Name of Target Chain>
PTN1_HUMAN

> <UniProt (SwissProt) Primary ID of Target Chain>
P18031

> <UniProt (SwissProt) Secondary ID(s) of Target Chain>
Q5TGD8,Q9BQV9,Q9NQQ4

$$$$

  SciTegic10241817252D

 25 27  0  0  0  0            999 V2000
    6.1111  -19.4459    0.0000 N   0  0
    6.1100  -20.2733    0.0000 C   0  0
    6.8247  -20.6861    0.0000 N   0  0
    6.8229  -19.0332    0.0000 C   0  0
    7.5384  -19.4423    0.0000 C   0  0
    7.5391  -20.2692    0.0000 C   0  0
    8.2545  -20.6801    0.0000 N   0  0
    8.9695  -20.2654    0.0000 C   0  0
    8.9647  -19.4354    0.0000 C   0  0
    8.2488  -19.0281    0.0000 C   0  0
    9.6820  -20.6710    0.0000 C   0  0
    9.6838  -21.4971    0.0000 C   0  0
   10.3991  -21.9067    0.0000 C   0  0
   11.1129  -21.4914    0.0000 C   0  0
   11.1070  -20.6621    0.0000 C   0  0
   10.3912  -20.2563    0.0000 C   0  0
    6.8205  -18.2082    0.0000 N   0  0
    5.3952  -20.6852    0.0000 N   0  0
    6.1048  -17.7978    0.0000 C   0  0
   10.3858  -19.4313    0.0000 C   0  0
   11.0975  -19.0140    0.0000 F   0  0
    9.6686  -19.0235    0.0000 F   0  0
   10.3792  -18.6043    0.0000 F   0  0
    8.9706  -21.9116    0.0000 S   0  0
    8.2549  -21.5012    0.0000 C   0  0
  1  2  2  0
  2  3  1  0
  3  6  2  0
  5  4  2  0
  4  1  1  0
  5  6  1  0
  6  7  1  0
  7  8  2  0
  8  9  1  0
  9 10  2  0
 10  5  1  0
 11 12  2  0
 12 13  1  0
 13 14  2  0
 14 15  1  0
 15 16  2  0
 16 11  1  0
  8 11  1  0
  4 17  1  0
  2 18  1  0
 17 19  1  0
 16 20  1  0
 20 21  1  0
 20 22  1  0
 20 23  1  0
 12 24  1  0
 24 25  1  0
M  END
> <From>
www.bindingDB.org

> <BindingDB Reactant_set_id>
50981331

> <Ligand InChI>
InChI=1S/C16H14F3N5S/c1-21-13-8-6-7-10(22-14(8)24-15(20)23-13)12-9(16(17,18)19)4-3-5-11(12)25-2/h3-7H,1-2H3,(H3,20,21,22,23,24)

> <Ligand InChI Key>
HVQTXUUOMXQYKD-UHFFFAOYSA-N

> <BindingDB MonomerID>
50402300

> <BindingDB Ligand Name>
CHEMBL2206063

> <Target Name Assigned by Curator or DataSource>
Protein-tyrosine phosphatase 1B (PTP1B)

> <Target Source Organism According to Curator or DataSource>
Homo sapiens

> <IC50 (nM)>
350

> <Curation/DataSource>
ChEMBL

> <Article DOI>
10.1016/j.bmcl.2012.10.035

> <PMID>
23122867

> <Authors>
Cheung, AW; Banner, B; Bose, J; Kim, K; Li, S; Marcopulos, N; Orzechowski, L; Sergi, JA; Thakkar, KC; Wang, BB; Yun, W; Zwingelstein, C; Berthel, S; Olivier, AR

> <Institution>
Roche Research Center

> <Link to Ligand in BindingDB>
http://www.bindingdb.org/bind/chemsearch/marvin/MolStructure.jsp?monomerid=50402300

> <Link to Ligand-Target Pair in BindingDB>
http://www.bindingdb.org/jsp/dbsearch/PrimarySearch_ki.jsp?energyterm=kJ/mole&tag=r21&monomerid=50402300&enzyme=Protein-tyrosine+phosphatase+1B+%28PTP1B%29&column=ki&startPg=0&Increment=50&submit=Search

> <PubChem CID>
15981929

> <PubChem SID>
163351324

> <ChEMBL ID of Ligand>
CHEMBL2206063

> <ZINC ID of Ligand>
ZINC34843520

> <Number of Protein Chains in Target (>
1

> <BindingDB Target Chain Sequence>
MEMEKEFEQIDKSGSWAAIYQDIRHEASDFPCRVAKLPKNKNRNRYRDVSPFDHSRIKLHQEDNDYINASLIKMEEAQRSYILTQGPLPNTCGHFWEMVWEQKSRGVVMLNRVMEKGSLKCAQYWPQKEEKEMIFEDTNLKLTLISEDIKSYYTVRQLELENLTTQETREILHFHYTTWPDFGVPESPASFLNFLFKVRESGSLSPEHGPVVVHCSAGIGRSGTFCLADTCLLLMDKRKDPSSVDIKKVLLEMRKFRMGLIQTADQLRFSYLAVIEGAKFIMGDSSVQDQWKELSHEDLEPPPEHIPPPPRPPKRILEPHNGKCREFFPNHQWVKEETQEDKDCPIKEEKGSPLNAAPYGIESMSQDTEVRSRVVGGSLRGAQAASPAKGEPSLPEKDEDHALSYWKPFLVNMCVATVLTAGAYLCYRFLFNSNT

> <PDB ID(s) of Target Chain>
1BZJ,1G7G,1GFY,1JF7,1KAK,1KAV,1LQF,1NL9,1NNY,1NO6,1NZ7,1OEM,1OEO,1OES,1OET,1OEU,1OEV,1ONY,1ONZ,1PH0,1PXH,1PYN,1Q1M,1Q6J,1Q6M,1Q6N,1Q6P,1Q6S,1Q6T,1QXK,1SUG,1T48,1T49,1T4J,1WAX,1XBO,2AZR,2B07,2BGD,2BGE,2CM2,2CM3,2CM7,2CM8,2CMA,2CMB,2CMC,2CNE,2CNF,2CNG,2CNH,2CNI,2F6T,2F6V,2F6W,2F6Y,2F6Z,2F70,2F71,2FJN,2H4G,2H4K,2HB1,2HNP,2HNQ,2QBP,2QBQ,2QBR,2QBS,2VEU,2VEV,2VEW,2VEX,2VEY,2ZMM,2ZN7,3A5J,3CWE,3D9C,3EAX,3EB1,3EU0,3I7Z,3I80,3SME,4BJO,4I8N,4QBW,4Y14

> <UniProt (SwissProt) Recommended Name of Target Chain>
Tyrosine-protein phosphatase non-receptor type 1

> <UniProt (SwissProt) Entry Name of Target Chain>
PTN1_HUMAN

> <UniProt (SwissProt) Primary ID of Target Chain>
P18031

> <UniProt (SwissProt) Secondary ID(s) of Target Chain>
Q5TGD8,Q9BQV9,Q9NQQ4

$$$$

  SciTegic10241817252D

 36 37  0  0  0  0            999 V2000
    0.4769   -5.5184    0.0000 C   0  0
    1.2973   -5.5184    0.0000 C   0  0
    1.5441   -4.7297    0.0000 C   0  0
    0.8768   -4.2540    0.0000 N   0  0
    2.3284   -4.4632    0.0000 C   0  0
    2.9120   -5.0468    0.0000 O   0  0
    2.5231   -3.6709    0.0000 C   0  0
    3.3194   -3.4396    0.0000 C   0  0
    3.8989   -4.0232    0.0000 C   0  0
    4.6987   -3.7840    0.0000 C   0  0
    5.2782   -4.3676    0.0000 C   0  0
    6.0780   -4.1284    0.0000 C   0  0
    6.6615   -4.7120    0.0000 C   0  0
    7.4613   -4.4728    0.0000 C   0  0
    8.0408   -5.0565    0.0000 C   0  0
    8.8407   -4.8173    0.0000 C   0  0
    9.4242   -5.4009    0.0000 C   0  0
   10.2241   -5.1617    0.0000 C   0  0
   10.8035   -5.7453    0.0000 C   0  0
   11.6074   -5.5061    0.0000 C   0  0
   12.1869   -6.0898    0.0000 C   0  0
   12.9867   -5.8507    0.0000 C   0  0
   13.5662   -6.4342    0.0000 C   0  0
   -0.0035   -6.1886    0.0000 C   0  0
   -0.8241   -6.1077    0.0000 O   0  0
    0.3368   -6.9395    0.0000 N   0  0
   -0.0744   -7.6543    0.0000 C   0  0
   -0.8994   -7.6560    0.0000 C   0  0
   -1.3104   -8.3701    0.0000 C   0  0
   -0.8969   -9.0844    0.0000 C   0  0
   -0.0680   -9.0804    0.0000 C   0  0
    0.3393   -8.3659    0.0000 C   0  0
    1.1639   -8.3624    0.0000 C   0  0
    1.5792   -9.0748    0.0000 O   0  0
    1.5731   -7.6465    0.0000 O   0  0
    0.2088   -4.7382    0.0000 N   0  0
 11 12  1  0
 12 13  1  0
 13 14  1  0
 14 15  1  0
 15 16  1  0
 16 17  1  0
 17 18  1  0
 18 19  1  0
 19 20  1  0
 20 21  1  0
 21 22  1  0
 22 23  1  0
  1 24  1  0
  1  2  2  0
 24 25  2  0
  2  3  1  0
 24 26  1  0
  3  4  2  0
 26 27  1  0
 27 28  2  0
 28 29  1  0
  3  5  1  0
 29 30  2  0
  5  6  2  0
 30 31  1  0
  5  7  1  0
 31 32  2  0
 32 27  1  0
  7  8  1  0
 32 33  1  0
  8  9  1  0
 33 34  1  0
  9 10  1  0
 33 35  2  0
 10 11  1  0
  4 36  1  0
 36  1  1  0
M  END
> <From>
www.bindingDB.org

> <BindingDB Reactant_set_id>
50574654

> <Ligand InChI>
InChI=1S/C29H43N3O4/c1-2-3-4-5-6-7-8-9-10-11-12-13-14-15-16-21-27(33)25-22-26(32-31-25)28(34)30-24-20-18-17-19-23(24)29(35)36/h17-20,22H,2-16,21H2,1H3,(H,30,34)(H,31,32)(H,35,36)

> <Ligand InChI Key>
FIWRNZMEMMAYAC-UHFFFAOYSA-N

> <BindingDB MonomerID>
50317355

> <BindingDB Ligand Name>
2-(3-stearoyl-1H-pyrazole-5-carboxamido)benzoic acid::CHEMBL1097720

> <Target Name Assigned by Curator or DataSource>
Protein-tyrosine phosphatase 1B (PTP1B)

> <Target Source Organism According to Curator or DataSource>
Homo sapiens

> <IC50 (nM)>
350

> <Curation/DataSource>
ChEMBL

> <Article DOI>
10.1016/j.bmcl.2010.03.040

> <PMID>
20363629

> <Authors>
Chen, HJ; Liu, Y; Wang, LN; Shen, Q; Li, J; Nan, FJ

> <Institution>
Chinese Academy of Sciences

> <Link to Ligand in BindingDB>
http://www.bindingdb.org/bind/chemsearch/marvin/MolStructure.jsp?monomerid=50317355

> <Link to Ligand-Target Pair in BindingDB>
http://www.bindingdb.org/jsp/dbsearch/PrimarySearch_ki.jsp?energyterm=kJ/mole&tag=r21&monomerid=50317355&enzyme=Protein-tyrosine+phosphatase+1B+%28PTP1B%29&column=ki&startPg=0&Increment=50&submit=Search

> <PubChem CID>
46861833

> <PubChem SID>
104151716

> <ChEMBL ID of Ligand>
CHEMBL1097720

> <ZINC ID of Ligand>
ZINC49784822

> <Number of Protein Chains in Target (>
1

> <BindingDB Target Chain Sequence>
MEMEKEFEQIDKSGSWAAIYQDIRHEASDFPCRVAKLPKNKNRNRYRDVSPFDHSRIKLHQEDNDYINASLIKMEEAQRSYILTQGPLPNTCGHFWEMVWEQKSRGVVMLNRVMEKGSLKCAQYWPQKEEKEMIFEDTNLKLTLISEDIKSYYTVRQLELENLTTQETREILHFHYTTWPDFGVPESPASFLNFLFKVRESGSLSPEHGPVVVHCSAGIGRSGTFCLADTCLLLMDKRKDPSSVDIKKVLLEMRKFRMGLIQTADQLRFSYLAVIEGAKFIMGDSSVQDQWKELSHEDLEPPPEHIPPPPRPPKRILEPHNGKCREFFPNHQWVKEETQEDKDCPIKEEKGSPLNAAPYGIESMSQDTEVRSRVVGGSLRGAQAASPAKGEPSLPEKDEDHALSYWKPFLVNMCVATVLTAGAYLCYRFLFNSNT

> <PDB ID(s) of Target Chain>
1BZJ,1G7G,1GFY,1JF7,1KAK,1KAV,1LQF,1NL9,1NNY,1NO6,1NZ7,1OEM,1OEO,1OES,1OET,1OEU,1OEV,1ONY,1ONZ,1PH0,1PXH,1PYN,1Q1M,1Q6J,1Q6M,1Q6N,1Q6P,1Q6S,1Q6T,1QXK,1SUG,1T48,1T49,1T4J,1WAX,1XBO,2AZR,2B07,2BGD,2BGE,2CM2,2CM3,2CM7,2CM8,2CMA,2CMB,2CMC,2CNE,2CNF,2CNG,2CNH,2CNI,2F6T,2F6V,2F6W,2F6Y,2F6Z,2F70,2F71,2FJN,2H4G,2H4K,2HB1,2HNP,2HNQ,2QBP,2QBQ,2QBR,2QBS,2VEU,2VEV,2VEW,2VEX,2VEY,2ZMM,2ZN7,3A5J,3CWE,3D9C,3EAX,3EB1,3EU0,3I7Z,3I80,3SME,4BJO,4I8N,4QBW,4Y14

> <UniProt (SwissProt) Recommended Name of Target Chain>
Tyrosine-protein phosphatase non-receptor type 1

> <UniProt (SwissProt) Entry Name of Target Chain>
PTN1_HUMAN

> <UniProt (SwissProt) Primary ID of Target Chain>
P18031

> <UniProt (SwissProt) Secondary ID(s) of Target Chain>
Q5TGD8,Q9BQV9,Q9NQQ4

$$$$
 
  SciTegic10241817252D

 25 27  0  0  0  0            999 V2000
   11.8318   -9.8260    0.0000 C   0  0
   11.8305  -10.6535    0.0000 C   0  0
   12.5434  -11.0663    0.0000 C   0  0
   12.5415   -9.4132    0.0000 C   0  0
   13.2596   -9.8220    0.0000 C   0  0
   13.2587  -10.6509    0.0000 C   0  0
   13.9722  -11.0639    0.0000 C   0  0
   14.6911  -10.6524    0.0000 O   0  0
   14.6920   -9.8235    0.0000 C   0  0  1  0  0  0
   13.9740   -9.4059    0.0000 C   0  0
   15.4073   -9.4125    0.0000 C   0  0
   16.1209   -9.8265    0.0000 O   0  0
   15.4091   -8.5876    0.0000 O   0  0
   11.1155  -11.0649    0.0000 N   0  0
   10.4017  -10.6515    0.0000 C   0  0
    9.6867  -11.0629    0.0000 C   0  0
   10.4029   -9.8265    0.0000 O   0  0
    8.9729  -10.6494    0.0000 C   0  0
    8.2578  -11.0608    0.0000 C   0  0
    7.5073  -10.7276    0.0000 C   0  0
    6.9545  -11.3398    0.0000 S   0  0
    7.3660  -12.0550    0.0000 C   0  0
    8.1731  -11.8845    0.0000 S   0  0
    6.5399  -12.0488    0.0000 C   0  0
    7.5757  -12.8462    0.0000 C   0  0
 11 12  2  0
  2  3  1  0
 11 13  1  0
  3  6  2  0
  2 14  1  0
  1  2  2  0
 14 15  1  0
  5  4  2  0
 15 16  1  0
  4  1  1  0
 15 17  2  0
  5 10  1  0
 16 18  1  0
  6  7  1  0
 18 19  1  0
 19 20  1  0
  7  8  1  0
  9  8  1  0
  9 10  1  0
  5  6  1  0
 20 21  1  0
 21 22  1  0
 22 23  1  0
 23 19  1  0
  9 11  1  1
 22 24  1  0
 22 25  1  0
M  END
> <Name>
 

> <From>
www.bindingDB.org

> <BindingDB Reactant_set_id>
50513455

> <Ligand InChI>
InChI=1S/C18H23NO4S2/c1-18(2)24-10-14(25-18)5-6-16(20)19-13-4-3-11-8-15(17(21)22)23-9-12(11)7-13/h3-4,7,14-15H,5-6,8-10H2,1-2H3,(H,19,20)(H,21,22)/t14?,15-/m0/s1

> <Ligand InChI Key>
HEZDUVOOOSBRGR-LOACHALJSA-N

> <BindingDB MonomerID>
50296374

> <BindingDB Ligand Name>
(3S)-7-[2-(2,2-Dimethyl-1,3-dithiolan-4-yl)ethylcarboxamido]-isochroman-3-carboxylic acid::CHEMBL549372

> <Target Name Assigned by Curator or DataSource>
Protein-tyrosine phosphatase 1B (PTP1B)

> <Target Source Organism According to Curator or DataSource>
Homo sapiens

> <IC50 (nM)>
353.7

> <Curation/DataSource>
ChEMBL

> <Article DOI>
10.1016/j.ejmech.2009.03.009

> <PMID>
19349096

> <Authors>
Lakshminarayana, N; Rajendra Prasad, Y; Gharat, L; Thomas, A; Ravikumar, P; Narayanan, S; Srinivasan, CV; Gopalan, B

> <Institution>
Glenmark Research Center

> <Link to Ligand in BindingDB>
http://www.bindingdb.org/bind/chemsearch/marvin/MolStructure.jsp?monomerid=50296374

> <Link to Ligand-Target Pair in BindingDB>
http://www.bindingdb.org/jsp/dbsearch/PrimarySearch_ki.jsp?energyterm=kJ/mole&tag=r21&monomerid=50296374&enzyme=Protein-tyrosine+phosphatase+1B+%28PTP1B%29&column=ki&startPg=0&Increment=50&submit=Search

> <PubChem CID>
44139780

> <PubChem SID>
104137905

> <ChEMBL ID of Ligand>
CHEMBL549372

> <ZINC ID of Ligand>
ZINC43012486

> <Number of Protein Chains in Target (>
1

> <BindingDB Target Chain Sequence>
MEMEKEFEQIDKSGSWAAIYQDIRHEASDFPCRVAKLPKNKNRNRYRDVSPFDHSRIKLHQEDNDYINASLIKMEEAQRSYILTQGPLPNTCGHFWEMVWEQKSRGVVMLNRVMEKGSLKCAQYWPQKEEKEMIFEDTNLKLTLISEDIKSYYTVRQLELENLTTQETREILHFHYTTWPDFGVPESPASFLNFLFKVRESGSLSPEHGPVVVHCSAGIGRSGTFCLADTCLLLMDKRKDPSSVDIKKVLLEMRKFRMGLIQTADQLRFSYLAVIEGAKFIMGDSSVQDQWKELSHEDLEPPPEHIPPPPRPPKRILEPHNGKCREFFPNHQWVKEETQEDKDCPIKEEKGSPLNAAPYGIESMSQDTEVRSRVVGGSLRGAQAASPAKGEPSLPEKDEDHALSYWKPFLVNMCVATVLTAGAYLCYRFLFNSNT

> <PDB ID(s) of Target Chain>
1BZJ,1G7G,1GFY,1JF7,1KAK,1KAV,1LQF,1NL9,1NNY,1NO6,1NZ7,1OEM,1OEO,1OES,1OET,1OEU,1OEV,1ONY,1ONZ,1PH0,1PXH,1PYN,1Q1M,1Q6J,1Q6M,1Q6N,1Q6P,1Q6S,1Q6T,1QXK,1SUG,1T48,1T49,1T4J,1WAX,1XBO,2AZR,2B07,2BGD,2BGE,2CM2,2CM3,2CM7,2CM8,2CMA,2CMB,2CMC,2CNE,2CNF,2CNG,2CNH,2CNI,2F6T,2F6V,2F6W,2F6Y,2F6Z,2F70,2F71,2FJN,2H4G,2H4K,2HB1,2HNP,2HNQ,2QBP,2QBQ,2QBR,2QBS,2VEU,2VEV,2VEW,2VEX,2VEY,2ZMM,2ZN7,3A5J,3CWE,3D9C,3EAX,3EB1,3EU0,3I7Z,3I80,3SME,4BJO,4I8N,4QBW,4Y14

> <UniProt (SwissProt) Recommended Name of Target Chain>
Tyrosine-protein phosphatase non-receptor type 1

> <UniProt (SwissProt) Entry Name of Target Chain>
PTN1_HUMAN

> <UniProt (SwissProt) Primary ID of Target Chain>
P18031

> <UniProt (SwissProt) Secondary ID(s) of Target Chain>
Q5TGD8,Q9BQV9,Q9NQQ4

$$$$
 
  SciTegic10241817252D

 28 29  0  0  0  0            999 V2000
    3.4088   -8.3551    0.0000 O   0  0
    3.4088   -7.5256    0.0000 C   0  0  1  0  0  0
    2.6898   -7.1085    0.0000 C   0  0
    1.9753   -8.3551    0.0000 C   0  0
    1.9779   -7.5274    0.0000 C   0  0
    1.2635   -7.1131    0.0000 C   0  0
    0.5461   -7.5254    0.0000 C   0  0
    0.5474   -8.3563    0.0000 C   0  0
    1.2625   -8.7668    0.0000 C   0  0
    4.1236   -7.1138    0.0000 C   0  0
    4.8377   -7.5270    0.0000 O   0  0
    4.1245   -6.2888    0.0000 O   0  0
   -0.1661   -8.7702    0.0000 N   0  0
   -0.8814   -8.3591    0.0000 C   0  0
   -1.5949   -8.7732    0.0000 C   0  0
   -0.8830   -7.5342    0.0000 O   0  0
   -2.3102   -8.3621    0.0000 C   0  0
   -3.0239   -8.7760    0.0000 C   0  0
   -3.7392   -8.3651    0.0000 C   0  0
   -4.4527   -8.7790    0.0000 C   0  0  2  0  0  0
   -5.2102   -8.4460    0.0000 C   0  0
   -5.7610   -9.0601    0.0000 C   0  0
   -5.3470   -9.7738    0.0000 S   0  0
   -4.5405   -9.6006    0.0000 S   0  0
    4.1233   -8.7676    0.0000 C   0  0
    4.8377   -8.3551    0.0000 C   0  0
    5.5522   -8.7676    0.0000 C   0  0
    6.2666   -8.3551    0.0000 C   0  0
 13 14  1  0
 14 15  1  0
  7  8  2  0
 14 16  2  0
  5  3  1  0
 15 17  1  0
  8  9  1  0
 17 18  1  0
  9  4  2  0
 18 19  1  0
  4  5  1  0
 20 19  1  1
 20 21  1  0
  2 10  1  0
  2  1  1  1
 10 11  2  0
  5  6  2  0
 21 22  1  0
 22 23  1  0
 23 24  1  0
 20 24  1  0
 10 12  1  0
  1 25  1  0
  2  3  1  0
 25 26  1  0
  8 13  1  0
 26 27  1  0
  6  7  1  0
 27 28  1  0
M  END
> <Name>
 

> <From>
www.bindingDB.org

> <BindingDB Reactant_set_id>
50513474

> <Ligand InChI>
InChI=1S/C21H31NO4S2/c1-2-3-13-26-19(21(24)25)15-16-8-10-17(11-9-16)22-20(23)7-5-4-6-18-12-14-27-28-18/h8-11,18-19H,2-7,12-15H2,1H3,(H,22,23)(H,24,25)/t18-,19+/m1/s1

> <Ligand InChI Key>
GCZBLWJRMYVJBL-MOPGFXCFSA-N

> <BindingDB MonomerID>
50296393

> <BindingDB Ligand Name>
(2S)-2-Butoxy-3-(4-{4-[(3R)-1,2-dithiolan-3-yl]butylcarboxamido}phenyl)propanoic acid::CHEMBL557861

> <Target Name Assigned by Curator or DataSource>
Protein-tyrosine phosphatase 1B (PTP1B)

> <Target Source Organism According to Curator or DataSource>
Homo sapiens

> <IC50 (nM)>
358.3

> <Curation/DataSource>
ChEMBL

> <Article DOI>
10.1016/j.ejmech.2009.03.009

> <PMID>
19349096

> <Authors>
Lakshminarayana, N; Rajendra Prasad, Y; Gharat, L; Thomas, A; Ravikumar, P; Narayanan, S; Srinivasan, CV; Gopalan, B

> <Institution>
Glenmark Research Center

> <Link to Ligand in BindingDB>
http://www.bindingdb.org/bind/chemsearch/marvin/MolStructure.jsp?monomerid=50296393

> <Link to Ligand-Target Pair in BindingDB>
http://www.bindingdb.org/jsp/dbsearch/PrimarySearch_ki.jsp?energyterm=kJ/mole&tag=r21&monomerid=50296393&enzyme=Protein-tyrosine+phosphatase+1B+%28PTP1B%29&column=ki&startPg=0&Increment=50&submit=Search

> <PubChem CID>
44140446

> <PubChem SID>
104137924

> <ChEMBL ID of Ligand>
CHEMBL557861

> <ZINC ID of Ligand>
ZINC43024335

> <Number of Protein Chains in Target (>
1

> <BindingDB Target Chain Sequence>
MEMEKEFEQIDKSGSWAAIYQDIRHEASDFPCRVAKLPKNKNRNRYRDVSPFDHSRIKLHQEDNDYINASLIKMEEAQRSYILTQGPLPNTCGHFWEMVWEQKSRGVVMLNRVMEKGSLKCAQYWPQKEEKEMIFEDTNLKLTLISEDIKSYYTVRQLELENLTTQETREILHFHYTTWPDFGVPESPASFLNFLFKVRESGSLSPEHGPVVVHCSAGIGRSGTFCLADTCLLLMDKRKDPSSVDIKKVLLEMRKFRMGLIQTADQLRFSYLAVIEGAKFIMGDSSVQDQWKELSHEDLEPPPEHIPPPPRPPKRILEPHNGKCREFFPNHQWVKEETQEDKDCPIKEEKGSPLNAAPYGIESMSQDTEVRSRVVGGSLRGAQAASPAKGEPSLPEKDEDHALSYWKPFLVNMCVATVLTAGAYLCYRFLFNSNT

> <PDB ID(s) of Target Chain>
1BZJ,1G7G,1GFY,1JF7,1KAK,1KAV,1LQF,1NL9,1NNY,1NO6,1NZ7,1OEM,1OEO,1OES,1OET,1OEU,1OEV,1ONY,1ONZ,1PH0,1PXH,1PYN,1Q1M,1Q6J,1Q6M,1Q6N,1Q6P,1Q6S,1Q6T,1QXK,1SUG,1T48,1T49,1T4J,1WAX,1XBO,2AZR,2B07,2BGD,2BGE,2CM2,2CM3,2CM7,2CM8,2CMA,2CMB,2CMC,2CNE,2CNF,2CNG,2CNH,2CNI,2F6T,2F6V,2F6W,2F6Y,2F6Z,2F70,2F71,2FJN,2H4G,2H4K,2HB1,2HNP,2HNQ,2QBP,2QBQ,2QBR,2QBS,2VEU,2VEV,2VEW,2VEX,2VEY,2ZMM,2ZN7,3A5J,3CWE,3D9C,3EAX,3EB1,3EU0,3I7Z,3I80,3SME,4BJO,4I8N,4QBW,4Y14

> <UniProt (SwissProt) Recommended Name of Target Chain>
Tyrosine-protein phosphatase non-receptor type 1

> <UniProt (SwissProt) Entry Name of Target Chain>
PTN1_HUMAN

> <UniProt (SwissProt) Primary ID of Target Chain>
P18031

> <UniProt (SwissProt) Secondary ID(s) of Target Chain>
Q5TGD8,Q9BQV9,Q9NQQ4

$$$$

  SciTegic10241817252D

 30 32  0  0  0  0            999 V2000
    4.4147    1.4466    0.0000 C   0  0
    4.8387    0.7316    0.0000 P   0  0
    3.6955    1.0226    0.0000 C   0  0
    0.8397   -1.4633    0.0000 C   0  0
    1.5506   -1.0517    0.0000 C   0  0
    3.6955    0.1953    0.0000 C   0  0
    2.9847    1.4341    0.0000 C   0  0
    4.1196    0.3076    0.0000 O   0  0
    1.5506   -0.2162    0.0000 C   0  0
    2.9847   -0.2162    0.0000 C   0  0
    3.9907    2.1657    0.0000 F   0  0
    5.1297    1.8706    0.0000 F   0  0
    0.8397   -2.2863    0.0000 O   0  0
    2.2697    0.1953    0.0000 C   0  0
    0.1289   -1.0517    0.0000 C   0  0
    2.2697   -1.4633    0.0000 C   0  0
    5.5537    1.1556    0.0000 O   0  0
    5.2627    0.0083    0.0000 O   0  0
    3.9076   -0.5986    0.0000 Cl  0  0
    2.2697    1.0226    0.0000 C   0  0
   -0.5861   -1.4633    0.0000 C   0  0
    0.1289   -0.2162    0.0000 C   0  0
    2.9847   -1.0517    0.0000 C   0  0
    2.2697   -2.2863    0.0000 C   0  0
   -0.5819    0.1871    0.0000 C   0  0
   -1.3052   -1.0517    0.0000 C   0  0
    2.9805   -2.6979    0.0000 C   0  0
    3.6955   -1.4633    0.0000 C   0  0
   -1.3052   -0.2162    0.0000 C   0  0
    3.6955   -2.2863    0.0000 C   0  0
  2  1  1  0
  3  1  1  0
  4  5  1  0
  5  9  1  0
  6  3  2  0
  7  3  1  0
  8  2  2  0
  9 14  1  0
 10  6  1  0
 11  1  1  0
 12  1  1  0
 13  4  2  0
 14 20  1  0
 15  4  1  0
 16  5  1  0
 17  2  1  0
 18  2  1  0
 19  6  1  0
 20  7  2  0
 21 15  2  0
 22 15  1  0
 23 16  2  0
 24 16  1  0
 25 22  2  0
 26 21  1  0
 27 24  2  0
 28 23  1  0
 29 25  1  0
 30 27  1  0
 10 14  2  0
 28 30  2  0
 26 29  2  0
M  END
> <From>
www.bindingDB.org

> <BindingDB Reactant_set_id>
50026887

> <Ligand InChI>
InChI=1S/C22H18ClF2O4P/c23-20-14-15(11-12-19(20)22(24,25)30(27,28)29)13-18(16-7-3-1-4-8-16)21(26)17-9-5-2-6-10-17/h1-12,14,18H,13H2,(H2,27,28,29)

> <Ligand InChI Key>
PRIBWEDDPMECKZ-UHFFFAOYSA-N

> <BindingDB MonomerID>
50142318

> <BindingDB Ligand Name>
CHEMBL428651::{[2-Chloro-4-(3-oxo-2,3-diphenyl-propyl)-phenyl]-difluoro-methyl}-phosphonic acid

> <Target Name Assigned by Curator or DataSource>
Protein-tyrosine phosphatase 1B

> <Target Source Organism According to Curator or DataSource>
Homo sapiens

> <IC50 (nM)>
360

> <Curation/DataSource>
ChEMBL

> <Article DOI>
10.1016/j.bmcl.2003.11.048

> <PMID>
15013019

> <Authors>
Dufresne, C; Roy, P; Wang, Z; Asante-Appiah, E; Cromlish, W; Boie, Y; Forghani, F; Desmarais, S; Wang, Q; Skorey, K; Waddleton, D; Ramachandran, C; Kennedy, BP; Xu, L; Gordon, R; Chan, CC; Leblanc, Y

> <Institution>
Merck Frosst Centre for Therapeutic Research

> <Link to Ligand in BindingDB>
http://www.bindingdb.org/bind/chemsearch/marvin/MolStructure.jsp?monomerid=50142318

> <Link to Ligand-Target Pair in BindingDB>
http://www.bindingdb.org/jsp/dbsearch/PrimarySearch_ki.jsp?energyterm=kJ/mole&tag=r21&monomerid=50142318&enzyme=Protein-tyrosine+phosphatase+1B&column=ki&startPg=0&Increment=50&submit=Search

> <PubChem CID>
44265546

> <PubChem SID>
104031709

> <ChEMBL ID of Ligand>
CHEMBL428651

> <ZINC ID of Ligand>
ZINC25988278

> <Number of Protein Chains in Target (>
1

> <BindingDB Target Chain Sequence>
MEMEKEFEQIDKSGSWAAIYQDIRHEASDFPCRVAKLPKNKNRNRYRDVSPFDHSRIKLHQEDNDYINASLIKMEEAQRSYILTQGPLPNTCGHFWEMVWEQKSRGVVMLNRVMEKGSLKCAQYWPQKEEKEMIFEDTNLKLTLISEDIKSYYTVRQLELENLTTQETREILHFHYTTWPDFGVPESPASFLNFLFKVRESGSLSPEHGPVVVHCSAGIGRSGTFCLADTCLLLMDKRKDPSSVDIKKVLLEMRKFRMGLIQTADQLRFSYLAVIEGAKFIMGDSSVQDQWKELSHEDLEPPPEHIPPPPRPPKRILEPHNGKCREFFPNHQWVKEETQEDKDCPIKEEKGSPLNAAPYGIESMSQDTEVRSRVVGGSLRGAQAASPAKGEPSLPEKDEDHALSYWKPFLVNMCVATVLTAGAYLCYRFLFNSNT

> <PDB ID(s) of Target Chain>
1BZJ,1G7G,1GFY,1JF7,1KAK,1KAV,1LQF,1NL9,1NNY,1NO6,1NZ7,1OEM,1OEO,1OES,1OET,1OEU,1OEV,1ONY,1ONZ,1PH0,1PXH,1PYN,1Q1M,1Q6J,1Q6M,1Q6N,1Q6P,1Q6S,1Q6T,1QXK,1SUG,1T48,1T49,1T4J,1WAX,1XBO,2AZR,2B07,2BGD,2BGE,2CM2,2CM3,2CM7,2CM8,2CMA,2CMB,2CMC,2CNE,2CNF,2CNG,2CNH,2CNI,2F6T,2F6V,2F6W,2F6Y,2F6Z,2F70,2F71,2FJN,2H4G,2H4K,2HB1,2HNP,2HNQ,2QBP,2QBQ,2QBR,2QBS,2VEU,2VEV,2VEW,2VEX,2VEY,2ZMM,2ZN7,3A5J,3CWE,3D9C,3EAX,3EB1,3EU0,3I7Z,3I80,3SME,4BJO,4I8N,4QBW,4Y14,5K9V,5K9W,5KA0,5KA1,5T19,6B90

> <UniProt (SwissProt) Recommended Name of Target Chain>
Tyrosine-protein phosphatase non-receptor type 1

> <UniProt (SwissProt) Entry Name of Target Chain>
PTN1_HUMAN

> <UniProt (SwissProt) Primary ID of Target Chain>
P18031

> <UniProt (SwissProt) Secondary ID(s) of Target Chain>
Q5TGD8,Q9BQV9,Q9NQQ4

$$$$

  SciTegic10241817252D

 34 38  0  0  0  0            999 V2000
    2.7611   -3.7648    0.0000 C   0  0
    3.0902   -3.0152    0.0000 C   0  0
    1.9407   -3.6857    0.0000 S   0  0
    2.4780   -2.4655    0.0000 C   0  0
    1.7658   -2.8778    0.0000 C   0  0
    6.3219   -2.3156    0.0000 C   0  0
    7.3756   -1.3535    0.0000 C   0  0
    3.9023   -2.8403    0.0000 C   0  0
    6.5718   -1.5367    0.0000 C   0  0
    3.1776   -4.4770    0.0000 C   0  0
    7.9336   -1.9657    0.0000 C   0  0
    9.0497   -3.1901    0.0000 C   0  0
    5.5098   -2.4905    0.0000 C   0  0
    8.7374   -1.7908    0.0000 O   0  0
    6.8716   -2.9278    0.0000 C   0  0
    8.2376   -3.3650    0.0000 O   0  0
    4.1480   -2.0532    0.0000 C   0  0
    4.4520   -3.4608    0.0000 C   0  0
    7.6837   -2.7611    0.0000 C   0  0
    4.9518   -1.8783    0.0000 C   0  0
    5.2641   -3.2776    0.0000 C   0  0
    9.2954   -2.4030    0.0000 C   0  0
    7.6254   -0.5664    0.0000 Br  0  0
    9.5995   -3.8023    0.0000 O   0  0
    2.7653   -5.2016    0.0000 C   0  0
    2.4780   -1.6284    0.0000 C   0  0
    1.0412   -2.4655    0.0000 C   0  0
    3.1776   -5.9138    0.0000 C   0  0
    1.9407   -5.2016    0.0000 C   0  0
    1.7616   -1.2244    0.0000 C   0  0
    1.0412   -1.6367    0.0000 C   0  0
    1.5284   -5.9138    0.0000 C   0  0
    2.7736   -6.6259    0.0000 C   0  0
    1.9407   -6.6384    0.0000 C   0  0
  2  1  2  0
  3  1  1  0
  4  2  1  0
  5  3  1  0
  6 13  1  0
  7  9  1  0
  8  2  1  0
  9  6  2  0
 10  1  1  0
 11 19  1  0
 12 22  1  0
 13 21  1  0
 14 11  1  0
 15  6  1  0
 16 12  2  0
 17  8  2  0
 18  8  1  0
 19 15  2  0
 20 17  1  0
 21 18  2  0
 22 14  1  0
 23  7  1  0
 24 12  1  0
 25 10  1  0
 26  4  2  0
 27  5  2  0
 28 25  2  0
 29 25  1  0
 30 26  1  0
 31 27  1  0
 32 29  2  0
 33 28  1  0
 34 32  1  0
  4  5  1  0
 30 31  2  0
 13 20  2  0
 33 34  2  0
  7 11  2  0
M  END
> <From>
www.bindingDB.org

> <BindingDB Reactant_set_id>
51015885

> <Ligand InChI>
InChI=1S/C29H21BrO3S/c30-24-17-22(14-15-25(24)33-18-28(31)32)20-10-12-21(13-11-20)29-23-8-4-5-9-26(23)34-27(29)16-19-6-2-1-3-7-19/h1-15,17H,16,18H2,(H,31,32)

> <Ligand InChI Key>
XFYYSLBHZPQYCH-UHFFFAOYSA-N

> <BindingDB MonomerID>
50086924

> <BindingDB Ligand Name>
2-(4'-(2-benzylbenzo[b]thiophen-3-yl)-3-bromobiphenyl-4-yloxy)acetic acid::CHEMBL283635::[4'-(2-Benzyl-benzo[b]thiophen-3-yl)-3-bromo-biphenyl-4-yloxy]-acetic acid

> <Target Name Assigned by Curator or DataSource>
Protein-tyrosine phosphatase 1B (PTP1B)

> <Target Source Organism According to Curator or DataSource>
Homo sapiens

> <IC50 (nM)>
363.08

> <Curation/DataSource>
ChEMBL

> <Article DOI>
10.1016/j.bmcl.2010.04.033

> <PMID>
20452766

> <Authors>
Cheng, Y; Zhou, M; Tung, CH; Ji, M; Zhang, F

> <Institution>
Tsinghua University

> <Link to Ligand in BindingDB>
http://www.bindingdb.org/bind/chemsearch/marvin/MolStructure.jsp?monomerid=50086924

> <Link to Ligand-Target Pair in BindingDB>
http://www.bindingdb.org/jsp/dbsearch/PrimarySearch_ki.jsp?energyterm=kJ/mole&tag=r21&monomerid=50086924&enzyme=Protein-tyrosine+phosphatase+1B+%28PTP1B%29&column=ki&startPg=0&Increment=50&submit=Search

> <PubChem CID>
10839919

> <PubChem SID>
103986035

> <ChEMBL ID of Ligand>
CHEMBL283635

> <ZINC ID of Ligand>
ZINC28758593

> <Number of Protein Chains in Target (>
1

> <BindingDB Target Chain Sequence>
MEMEKEFEQIDKSGSWAAIYQDIRHEASDFPCRVAKLPKNKNRNRYRDVSPFDHSRIKLHQEDNDYINASLIKMEEAQRSYILTQGPLPNTCGHFWEMVWEQKSRGVVMLNRVMEKGSLKCAQYWPQKEEKEMIFEDTNLKLTLISEDIKSYYTVRQLELENLTTQETREILHFHYTTWPDFGVPESPASFLNFLFKVRESGSLSPEHGPVVVHCSAGIGRSGTFCLADTCLLLMDKRKDPSSVDIKKVLLEMRKFRMGLIQTADQLRFSYLAVIEGAKFIMGDSSVQDQWKELSHEDLEPPPEHIPPPPRPPKRILEPHNGKCREFFPNHQWVKEETQEDKDCPIKEEKGSPLNAAPYGIESMSQDTEVRSRVVGGSLRGAQAASPAKGEPSLPEKDEDHALSYWKPFLVNMCVATVLTAGAYLCYRFLFNSNT

> <PDB ID(s) of Target Chain>
1BZJ,1G7G,1GFY,1JF7,1KAK,1KAV,1LQF,1NL9,1NNY,1NO6,1NZ7,1OEM,1OEO,1OES,1OET,1OEU,1OEV,1ONY,1ONZ,1PH0,1PXH,1PYN,1Q1M,1Q6J,1Q6M,1Q6N,1Q6P,1Q6S,1Q6T,1QXK,1SUG,1T48,1T49,1T4J,1WAX,1XBO,2AZR,2B07,2BGD,2BGE,2CM2,2CM3,2CM7,2CM8,2CMA,2CMB,2CMC,2CNE,2CNF,2CNG,2CNH,2CNI,2F6T,2F6V,2F6W,2F6Y,2F6Z,2F70,2F71,2FJN,2H4G,2H4K,2HB1,2HNP,2HNQ,2QBP,2QBQ,2QBR,2QBS,2VEU,2VEV,2VEW,2VEX,2VEY,2ZMM,2ZN7,3A5J,3CWE,3D9C,3EAX,3EB1,3EU0,3I7Z,3I80,3SME,4BJO,4I8N,4QBW,4Y14

> <UniProt (SwissProt) Recommended Name of Target Chain>
Tyrosine-protein phosphatase non-receptor type 1

> <UniProt (SwissProt) Entry Name of Target Chain>
PTN1_HUMAN

> <UniProt (SwissProt) Primary ID of Target Chain>
P18031

> <UniProt (SwissProt) Secondary ID(s) of Target Chain>
Q5TGD8,Q9BQV9,Q9NQQ4

$$$$

  SciTegic10241817252D

 39 44  0  0  0  0            999 V2000
    3.4584   -5.3164    0.0000 C   0  0
    3.7951   -4.5682    0.0000 C   0  0
    2.6478   -5.2374    0.0000 O   0  0
    3.1841   -4.0196    0.0000 C   0  0
    2.4733   -4.4311    0.0000 C   0  0
    7.4571   -0.1164    0.0000 C   0  0
    4.6057   -4.3937    0.0000 C   0  0
    3.8824   -6.0272    0.0000 C   0  0
    8.0100   -0.7357    0.0000 C   0  0
    6.2101   -4.0445    0.0000 C   0  0
    7.0207   -3.8699    0.0000 C   0  0
    6.6882   -0.4157    0.0000 O   0  0
    5.1543   -5.0047    0.0000 C   0  0
    4.8509   -3.6080    0.0000 C   0  0
    5.6531   -3.4335    0.0000 C   0  0
    5.9649   -4.8301    0.0000 C   0  0
    7.7689   -1.5131    0.0000 C   0  0
    8.8205   -0.5529    0.0000 C   0  0
    7.2701   -3.0926    0.0000 C   0  0
    7.5693   -4.4810    0.0000 C   0  0
    9.4316   -3.3462    0.0000 O   0  0
    8.6293   -3.5208    0.0000 C   0  0
    7.5735    0.6941    0.0000 O   0  0
    9.1323   -1.9495    0.0000 C   0  0
    3.4709   -6.7505    0.0000 C   0  0
    9.6893   -2.5606    0.0000 C   0  0
    8.0723   -2.9097    0.0000 C   0  0
    8.3799   -4.3064    0.0000 C   0  0
    8.3217   -2.1241    0.0000 C   0  0
    9.3817   -1.1639    0.0000 C   0  0
    3.1841   -3.1841    0.0000 C   0  0
    1.7500   -4.0196    0.0000 C   0  0
    2.6478   -6.7463    0.0000 C   0  0
    3.8907   -7.4571    0.0000 C   0  0
    2.4691   -2.7725    0.0000 C   0  0
    1.7500   -3.1923    0.0000 C   0  0
    3.4833   -8.1721    0.0000 C   0  0
    2.2363   -7.4613    0.0000 C   0  0
    2.6478   -8.1804    0.0000 C   0  0
  2  1  2  0
  3  1  1  0
  4  2  1  0
  5  3  1  0
  6  9  1  0
  7  2  1  0
  8  1  1  0
  9 18  2  0
 10 15  1  0
 11 10  1  0
 12  6  2  0
 13  7  2  0
 14  7  1  0
 15 14  2  0
 16 13  1  0
 17 29  2  0
 18 30  1  0
 19 11  2  0
 20 11  1  0
 21 22  1  0
 22 28  1  0
 23  6  1  0
 24 26  1  0
 25  8  1  0
 26 21  1  0
 27 19  1  0
 28 20  2  0
 29 24  1  0
 30 24  2  0
 31  4  2  0
 32  5  2  0
 33 25  2  0
 34 25  1  0
 35 31  1  0
 36 32  1  0
 37 34  2  0
 38 33  1  0
 39 37  1  0
  4  5  1  0
 35 36  2  0
 16 10  2  0
 38 39  2  0
 22 27  2  0
  9 17  1  0
M  END
> <From>
www.bindingDB.org

> <BindingDB Reactant_set_id>
51015940

> <Ligand InChI>
InChI=1S/C35H26O4/c36-35(37)29-12-10-25(11-13-29)23-38-30-20-18-27(19-21-30)26-14-16-28(17-15-26)34-31-8-4-5-9-32(31)39-33(34)22-24-6-2-1-3-7-24/h1-21H,22-23H2,(H,36,37)

> <Ligand InChI Key>
JRWYXZJCMPCPBV-UHFFFAOYSA-N

> <BindingDB MonomerID>
50086997

> <BindingDB Ligand Name>
4-((4'-(2-benzylbenzofuran-3-yl)biphenyl-4-yloxy)methyl)benzoic acid::4-[4'-(2-Benzyl-benzofuran-3-yl)-biphenyl-4-yloxymethyl]-benzoic acid::CHEMBL280992

> <Target Name Assigned by Curator or DataSource>
Protein-tyrosine phosphatase 1B (PTP1B)

> <Target Source Organism According to Curator or DataSource>
Homo sapiens

> <IC50 (nM)>
363.08

> <Curation/DataSource>
ChEMBL

> <Article DOI>
10.1016/j.bmcl.2010.04.033

> <PMID>
20452766

> <Authors>
Cheng, Y; Zhou, M; Tung, CH; Ji, M; Zhang, F

> <Institution>
Tsinghua University

> <Link to Ligand in BindingDB>
http://www.bindingdb.org/bind/chemsearch/marvin/MolStructure.jsp?monomerid=50086997

> <Link to Ligand-Target Pair in BindingDB>
http://www.bindingdb.org/jsp/dbsearch/PrimarySearch_ki.jsp?energyterm=kJ/mole&tag=r21&monomerid=50086997&enzyme=Protein-tyrosine+phosphatase+1B+%28PTP1B%29&column=ki&startPg=0&Increment=50&submit=Search

> <PubChem CID>
10529709

> <PubChem SID>
103986108

> <ChEMBL ID of Ligand>
CHEMBL280992

> <ZINC ID of Ligand>
ZINC13806760

> <Number of Protein Chains in Target (>
1

> <BindingDB Target Chain Sequence>
MEMEKEFEQIDKSGSWAAIYQDIRHEASDFPCRVAKLPKNKNRNRYRDVSPFDHSRIKLHQEDNDYINASLIKMEEAQRSYILTQGPLPNTCGHFWEMVWEQKSRGVVMLNRVMEKGSLKCAQYWPQKEEKEMIFEDTNLKLTLISEDIKSYYTVRQLELENLTTQETREILHFHYTTWPDFGVPESPASFLNFLFKVRESGSLSPEHGPVVVHCSAGIGRSGTFCLADTCLLLMDKRKDPSSVDIKKVLLEMRKFRMGLIQTADQLRFSYLAVIEGAKFIMGDSSVQDQWKELSHEDLEPPPEHIPPPPRPPKRILEPHNGKCREFFPNHQWVKEETQEDKDCPIKEEKGSPLNAAPYGIESMSQDTEVRSRVVGGSLRGAQAASPAKGEPSLPEKDEDHALSYWKPFLVNMCVATVLTAGAYLCYRFLFNSNT

> <PDB ID(s) of Target Chain>
1BZJ,1G7G,1GFY,1JF7,1KAK,1KAV,1LQF,1NL9,1NNY,1NO6,1NZ7,1OEM,1OEO,1OES,1OET,1OEU,1OEV,1ONY,1ONZ,1PH0,1PXH,1PYN,1Q1M,1Q6J,1Q6M,1Q6N,1Q6P,1Q6S,1Q6T,1QXK,1SUG,1T48,1T49,1T4J,1WAX,1XBO,2AZR,2B07,2BGD,2BGE,2CM2,2CM3,2CM7,2CM8,2CMA,2CMB,2CMC,2CNE,2CNF,2CNG,2CNH,2CNI,2F6T,2F6V,2F6W,2F6Y,2F6Z,2F70,2F71,2FJN,2H4G,2H4K,2HB1,2HNP,2HNQ,2QBP,2QBQ,2QBR,2QBS,2VEU,2VEV,2VEW,2VEX,2VEY,2ZMM,2ZN7,3A5J,3CWE,3D9C,3EAX,3EB1,3EU0,3I7Z,3I80,3SME,4BJO,4I8N,4QBW,4Y14

> <UniProt (SwissProt) Recommended Name of Target Chain>
Tyrosine-protein phosphatase non-receptor type 1

> <UniProt (SwissProt) Entry Name of Target Chain>
PTN1_HUMAN

> <UniProt (SwissProt) Primary ID of Target Chain>
P18031

> <UniProt (SwissProt) Secondary ID(s) of Target Chain>
Q5TGD8,Q9BQV9,Q9NQQ4

$$$$
 
  SciTegic10241817252D

 27 28  0  0  0  0            999 V2000
   16.2463   -4.4320    0.0000 O   0  0
   16.2463   -3.6024    0.0000 C   0  0  1  0  0  0
   15.5272   -3.1853    0.0000 C   0  0
   14.8128   -4.4320    0.0000 C   0  0
   14.8153   -3.6042    0.0000 C   0  0
   14.1009   -3.1899    0.0000 C   0  0
   13.3835   -3.6023    0.0000 C   0  0
   13.3850   -4.4331    0.0000 C   0  0
   14.0999   -4.8437    0.0000 C   0  0
   16.9612   -3.1907    0.0000 C   0  0
   17.6751   -3.6038    0.0000 O   0  0
   16.9619   -2.3657    0.0000 O   0  0
   12.6713   -4.8471    0.0000 N   0  0
   11.9560   -4.4360    0.0000 C   0  0
   11.2425   -4.8499    0.0000 C   0  0
   11.9544   -3.6111    0.0000 O   0  0
   10.5272   -4.4389    0.0000 C   0  0
    9.8136   -4.8529    0.0000 C   0  0
    9.0983   -4.4419    0.0000 C   0  0
    8.3847   -4.8558    0.0000 C   0  0  2  0  0  0
    7.6272   -4.5228    0.0000 C   0  0
    7.0765   -5.1370    0.0000 C   0  0
    7.4904   -5.8507    0.0000 S   0  0
    8.2970   -5.6773    0.0000 S   0  0
   16.9607   -4.8444    0.0000 C   0  0
   17.6751   -4.4320    0.0000 C   0  0
   18.3896   -4.8444    0.0000 C   0  0
  6  7  1  0
 13 14  1  0
 14 15  1  0
  7  8  2  0
 14 16  2  0
  5  3  1  0
 15 17  1  0
  8  9  1  0
 17 18  1  0
  9  4  2  0
 18 19  1  0
  4  5  1  0
 20 19  1  1
 20 21  1  0
  2 10  1  0
  2  1  1  1
 10 11  2  0
  5  6  2  0
 21 22  1  0
 22 23  1  0
 23 24  1  0
 20 24  1  0
 10 12  1  0
  1 25  1  0
  2  3  1  0
 25 26  1  0
  8 13  1  0
 26 27  1  0
M  END
> <Name>
 

> <From>
www.bindingDB.org

> <BindingDB Reactant_set_id>
50513473

> <Ligand InChI>
InChI=1S/C20H29NO4S2/c1-2-12-25-18(20(23)24)14-15-7-9-16(10-8-15)21-19(22)6-4-3-5-17-11-13-26-27-17/h7-10,17-18H,2-6,11-14H2,1H3,(H,21,22)(H,23,24)/t17-,18+/m1/s1

> <Ligand InChI Key>
MVIULGKBESUZEE-MSOLQXFVSA-N

> <BindingDB MonomerID>
50296392

> <BindingDB Ligand Name>
(2S)-3-(4-{4-[(3R)-1,2-Dithiolan-3-yl]butylcarboxamido}phenyl)-2-propoxypropanoic acid::CHEMBL562392

> <Target Name Assigned by Curator or DataSource>
Protein-tyrosine phosphatase 1B (PTP1B)

> <Target Source Organism According to Curator or DataSource>
Homo sapiens

> <IC50 (nM)>
373.7

> <Curation/DataSource>
ChEMBL

> <Article DOI>
10.1016/j.ejmech.2009.03.009

> <PMID>
19349096

> <Authors>
Lakshminarayana, N; Rajendra Prasad, Y; Gharat, L; Thomas, A; Ravikumar, P; Narayanan, S; Srinivasan, CV; Gopalan, B

> <Institution>
Glenmark Research Center

> <Link to Ligand in BindingDB>
http://www.bindingdb.org/bind/chemsearch/marvin/MolStructure.jsp?monomerid=50296392

> <Link to Ligand-Target Pair in BindingDB>
http://www.bindingdb.org/jsp/dbsearch/PrimarySearch_ki.jsp?energyterm=kJ/mole&tag=r21&monomerid=50296392&enzyme=Protein-tyrosine+phosphatase+1B+%28PTP1B%29&column=ki&startPg=0&Increment=50&submit=Search

> <PubChem CID>
44140191

> <PubChem SID>
104137923

> <ChEMBL ID of Ligand>
CHEMBL562392

> <ZINC ID of Ligand>
ZINC43121342

> <Number of Protein Chains in Target (>
1

> <BindingDB Target Chain Sequence>
MEMEKEFEQIDKSGSWAAIYQDIRHEASDFPCRVAKLPKNKNRNRYRDVSPFDHSRIKLHQEDNDYINASLIKMEEAQRSYILTQGPLPNTCGHFWEMVWEQKSRGVVMLNRVMEKGSLKCAQYWPQKEEKEMIFEDTNLKLTLISEDIKSYYTVRQLELENLTTQETREILHFHYTTWPDFGVPESPASFLNFLFKVRESGSLSPEHGPVVVHCSAGIGRSGTFCLADTCLLLMDKRKDPSSVDIKKVLLEMRKFRMGLIQTADQLRFSYLAVIEGAKFIMGDSSVQDQWKELSHEDLEPPPEHIPPPPRPPKRILEPHNGKCREFFPNHQWVKEETQEDKDCPIKEEKGSPLNAAPYGIESMSQDTEVRSRVVGGSLRGAQAASPAKGEPSLPEKDEDHALSYWKPFLVNMCVATVLTAGAYLCYRFLFNSNT

> <PDB ID(s) of Target Chain>
1BZJ,1G7G,1GFY,1JF7,1KAK,1KAV,1LQF,1NL9,1NNY,1NO6,1NZ7,1OEM,1OEO,1OES,1OET,1OEU,1OEV,1ONY,1ONZ,1PH0,1PXH,1PYN,1Q1M,1Q6J,1Q6M,1Q6N,1Q6P,1Q6S,1Q6T,1QXK,1SUG,1T48,1T49,1T4J,1WAX,1XBO,2AZR,2B07,2BGD,2BGE,2CM2,2CM3,2CM7,2CM8,2CMA,2CMB,2CMC,2CNE,2CNF,2CNG,2CNH,2CNI,2F6T,2F6V,2F6W,2F6Y,2F6Z,2F70,2F71,2FJN,2H4G,2H4K,2HB1,2HNP,2HNQ,2QBP,2QBQ,2QBR,2QBS,2VEU,2VEV,2VEW,2VEX,2VEY,2ZMM,2ZN7,3A5J,3CWE,3D9C,3EAX,3EB1,3EU0,3I7Z,3I80,3SME,4BJO,4I8N,4QBW,4Y14

> <UniProt (SwissProt) Recommended Name of Target Chain>
Tyrosine-protein phosphatase non-receptor type 1

> <UniProt (SwissProt) Entry Name of Target Chain>
PTN1_HUMAN

> <UniProt (SwissProt) Primary ID of Target Chain>
P18031

> <UniProt (SwissProt) Secondary ID(s) of Target Chain>
Q5TGD8,Q9BQV9,Q9NQQ4

$$$$
 
  SciTegic10241817252D

 25 27  0  0  0  0            999 V2000
    5.9449   -2.5767    0.0000 C   0  0
    5.1623   -2.3250    0.0000 C   0  0
    4.6809   -3.0002    0.0000 C   0  0
    5.1612   -3.6545    0.0000 C   0  0
    5.9462   -3.4021    0.0000 S   0  0
   10.9526   -1.3383    0.0000 C   0  0
   10.9513   -2.1613    0.0000 C   0  0
   11.6689   -2.5742    0.0000 C   0  0
   11.6669   -0.9255    0.0000 C   0  0
   12.3759   -1.3343    0.0000 C   0  0
   12.3750   -2.1634    0.0000 C   0  0
   13.0886   -2.5717    0.0000 C   0  0
   13.8030   -2.1603    0.0000 O   0  0
   13.8039   -1.3358    0.0000 C   0  0  1  0  0  0
   13.0857   -0.9228    0.0000 C   0  0
   14.5238   -0.9203    0.0000 C   0  0
   15.2374   -1.3297    0.0000 O   0  0
   14.5209   -0.0953    0.0000 O   0  0
   10.2316   -2.5774    0.0000 N   0  0
    9.5177   -2.1638    0.0000 C   0  0
    8.8074   -2.5799    0.0000 C   0  0
    9.5189   -1.3388    0.0000 O   0  0
    8.0935   -2.1663    0.0000 C   0  0
    7.3784   -2.5778    0.0000 C   0  0
    6.6599   -2.1642    0.0000 C   0  0
  6  7  2  0
  2  3  1  0
 10 15  1  0
 11 12  1  0
 12 13  1  0
 14 13  1  0
 14 15  1  0
  7  8  1  0
 14 16  1  1
  8 11  2  0
 16 17  2  0
  3  4  2  0
 16 18  1  0
 10  9  2  0
  7 19  1  0
  9  6  1  0
 19 20  1  0
 10 11  1  0
 20 21  1  0
  4  5  1  0
 20 22  2  0
  5  1  1  0
 21 23  1  0
 23 24  1  0
  1  2  2  0
 24 25  1  0
  1 25  1  0
M  END
> <Name>
 

> <From>
www.bindingDB.org

> <BindingDB Reactant_set_id>
50513451

> <Ligand InChI>
InChI=1S/C19H21NO4S/c21-18(6-2-1-4-16-5-3-9-25-16)20-15-8-7-13-11-17(19(22)23)24-12-14(13)10-15/h3,5,7-10,17H,1-2,4,6,11-12H2,(H,20,21)(H,22,23)/t17-/m0/s1

> <Ligand InChI Key>
NFXYGJNCWVDKLI-KRWDZBQOSA-N

> <BindingDB MonomerID>
50296370

> <BindingDB Ligand Name>
(3S)-7-[4-(2-Thienyl)butylcarboxamido]-isochroman-3-carboxylic acid::CHEMBL550462

> <Target Name Assigned by Curator or DataSource>
Protein-tyrosine phosphatase 1B (PTP1B)

> <Target Source Organism According to Curator or DataSource>
Homo sapiens

> <IC50 (nM)>
383.7

> <Curation/DataSource>
ChEMBL

> <Article DOI>
10.1016/j.ejmech.2009.03.009

> <PMID>
19349096

> <Authors>
Lakshminarayana, N; Rajendra Prasad, Y; Gharat, L; Thomas, A; Ravikumar, P; Narayanan, S; Srinivasan, CV; Gopalan, B

> <Institution>
Glenmark Research Center

> <Link to Ligand in BindingDB>
http://www.bindingdb.org/bind/chemsearch/marvin/MolStructure.jsp?monomerid=50296370

> <Link to Ligand-Target Pair in BindingDB>
http://www.bindingdb.org/jsp/dbsearch/PrimarySearch_ki.jsp?energyterm=kJ/mole&tag=r21&monomerid=50296370&enzyme=Protein-tyrosine+phosphatase+1B+%28PTP1B%29&column=ki&startPg=0&Increment=50&submit=Search

> <PubChem CID>
44139660

> <PubChem SID>
104137901

> <ChEMBL ID of Ligand>
CHEMBL550462

> <ZINC ID of Ligand>
ZINC43018429

> <Number of Protein Chains in Target (>
1

> <BindingDB Target Chain Sequence>
MEMEKEFEQIDKSGSWAAIYQDIRHEASDFPCRVAKLPKNKNRNRYRDVSPFDHSRIKLHQEDNDYINASLIKMEEAQRSYILTQGPLPNTCGHFWEMVWEQKSRGVVMLNRVMEKGSLKCAQYWPQKEEKEMIFEDTNLKLTLISEDIKSYYTVRQLELENLTTQETREILHFHYTTWPDFGVPESPASFLNFLFKVRESGSLSPEHGPVVVHCSAGIGRSGTFCLADTCLLLMDKRKDPSSVDIKKVLLEMRKFRMGLIQTADQLRFSYLAVIEGAKFIMGDSSVQDQWKELSHEDLEPPPEHIPPPPRPPKRILEPHNGKCREFFPNHQWVKEETQEDKDCPIKEEKGSPLNAAPYGIESMSQDTEVRSRVVGGSLRGAQAASPAKGEPSLPEKDEDHALSYWKPFLVNMCVATVLTAGAYLCYRFLFNSNT

> <PDB ID(s) of Target Chain>
1BZJ,1G7G,1GFY,1JF7,1KAK,1KAV,1LQF,1NL9,1NNY,1NO6,1NZ7,1OEM,1OEO,1OES,1OET,1OEU,1OEV,1ONY,1ONZ,1PH0,1PXH,1PYN,1Q1M,1Q6J,1Q6M,1Q6N,1Q6P,1Q6S,1Q6T,1QXK,1SUG,1T48,1T49,1T4J,1WAX,1XBO,2AZR,2B07,2BGD,2BGE,2CM2,2CM3,2CM7,2CM8,2CMA,2CMB,2CMC,2CNE,2CNF,2CNG,2CNH,2CNI,2F6T,2F6V,2F6W,2F6Y,2F6Z,2F70,2F71,2FJN,2H4G,2H4K,2HB1,2HNP,2HNQ,2QBP,2QBQ,2QBR,2QBS,2VEU,2VEV,2VEW,2VEX,2VEY,2ZMM,2ZN7,3A5J,3CWE,3D9C,3EAX,3EB1,3EU0,3I7Z,3I80,3SME,4BJO,4I8N,4QBW,4Y14

> <UniProt (SwissProt) Recommended Name of Target Chain>
Tyrosine-protein phosphatase non-receptor type 1

> <UniProt (SwissProt) Entry Name of Target Chain>
PTN1_HUMAN

> <UniProt (SwissProt) Primary ID of Target Chain>
P18031

> <UniProt (SwissProt) Secondary ID(s) of Target Chain>
Q5TGD8,Q9BQV9,Q9NQQ4

$$$$

  SciTegic10241817252D

 27 31  0  0  0  0            999 V2000
    3.7620   -8.2922    0.0000 C   0  0
    3.2735   -7.6200    0.0000 C   0  0
    3.6075   -6.8684    0.0000 C   0  0
    3.2860   -8.9602    0.0000 S   0  0
    4.4216   -6.7807    0.0000 C   0  0
    4.5762   -8.1962    0.0000 C   0  0
    3.1106   -6.2045    0.0000 C   0  0
    4.9102   -7.4446    0.0000 C   0  0
    2.4927   -7.8830    0.0000 C   0  0
    2.4969   -8.7097    0.0000 C   0  0
    2.1336   -4.8768    0.0000 C   0  0
    2.9561   -4.7891    0.0000 C   0  0
    1.8037   -5.6409    0.0000 C   0  0
    3.4488   -5.4530    0.0000 C   0  0
    2.2964   -6.3047    0.0000 C   0  0
    5.0730   -8.8683    0.0000 Br  0  0
    3.2860   -4.0250    0.0000 Br  0  0
    0.9812   -5.7369    0.0000 Br  0  0
    1.6451   -4.2129    0.0000 O   0  0
    4.7515   -6.0292    0.0000 C   0  0
    5.7285   -7.3569    0.0000 C   0  0
    1.7704   -7.4696    0.0000 C   0  0
    1.7704   -9.1314    0.0000 C   0  0
    5.5657   -5.9373    0.0000 C   0  0
    6.0542   -6.6054    0.0000 C   0  0
    1.0564   -7.8913    0.0000 C   0  0
    1.0564   -8.7180    0.0000 C   0  0
  2  1  2  0
  3  2  1  0
  4  1  1  0
  5  8  1  0
  6  1  1  0
  7  3  1  0
  8  6  2  0
  9  2  1  0
 10  4  1  0
 11 13  1  0
 12 14  1  0
 13 15  2  0
 14  7  2  0
 15  7  1  0
 16  6  1  0
 17 12  1  0
 18 13  1  0
 19 11  1  0
 20  5  1  0
 21  8  1  0
 22  9  1  0
 23 10  1  0
 24 25  1  0
 25 21  2  0
 26 22  2  0
 27 23  2  0
 10  9  2  0
  3  5  2  0
 27 26  1  0
 20 24  2  0
 11 12  2  0
M  END
> <From>
www.bindingDB.org

> <BindingDB Reactant_set_id>
50139778

> <Ligand InChI>
InChI=1S/C22H11Br3OS/c23-15-9-11(10-16(24)21(15)26)18-12-5-1-2-6-13(12)20(25)22-19(18)14-7-3-4-8-17(14)27-22/h1-10,26H

> <Ligand InChI Key>
COZBGFUHIPXOOR-UHFFFAOYSA-N

> <BindingDB MonomerID>
50079860

> <BindingDB Ligand Name>
2,6-Dibromo-4-(6-bromo-benzo[b]naphtho[2,3-d]thiophen-11-yl)-phenol::CHEMBL109290

> <Target Name Assigned by Curator or DataSource>
Protein-tyrosine phosphatase 1B

> <Target Source Organism According to Curator or DataSource>
Homo sapiens

> <IC50 (nM)>
384

> <Curation/DataSource>
ChEMBL

> <Article DOI>
10.1021/jm990260v

> <PMID>
10464006

> <Authors>
Wrobel, J; Sredy, J; Moxham, C; Dietrich, A; Li, Z; Sawicki, DR; Seestaller, L; Wu, L; Katz, A; Sullivan, D; Tio, C; Zhang, ZY

> <Institution>
Wyeth-Ayerst Research

> <Link to Ligand in BindingDB>
http://www.bindingdb.org/bind/chemsearch/marvin/MolStructure.jsp?monomerid=50079860

> <Link to Ligand-Target Pair in BindingDB>
http://www.bindingdb.org/jsp/dbsearch/PrimarySearch_ki.jsp?energyterm=kJ/mole&tag=r21&monomerid=50079860&enzyme=Protein-tyrosine+phosphatase+1B&column=ki&startPg=0&Increment=50&submit=Search

> <PubChem CID>
10840654

> <PubChem SID>
103971993

> <ChEMBL ID of Ligand>
CHEMBL109290

> <ZINC ID of Ligand>
ZINC26959662

> <Number of Protein Chains in Target (>
1

> <BindingDB Target Chain Sequence>
MEMEKEFEQIDKSGSWAAIYQDIRHEASDFPCRVAKLPKNKNRNRYRDVSPFDHSRIKLHQEDNDYINASLIKMEEAQRSYILTQGPLPNTCGHFWEMVWEQKSRGVVMLNRVMEKGSLKCAQYWPQKEEKEMIFEDTNLKLTLISEDIKSYYTVRQLELENLTTQETREILHFHYTTWPDFGVPESPASFLNFLFKVRESGSLSPEHGPVVVHCSAGIGRSGTFCLADTCLLLMDKRKDPSSVDIKKVLLEMRKFRMGLIQTADQLRFSYLAVIEGAKFIMGDSSVQDQWKELSHEDLEPPPEHIPPPPRPPKRILEPHNGKCREFFPNHQWVKEETQEDKDCPIKEEKGSPLNAAPYGIESMSQDTEVRSRVVGGSLRGAQAASPAKGEPSLPEKDEDHALSYWKPFLVNMCVATVLTAGAYLCYRFLFNSNT

> <PDB ID(s) of Target Chain>
1BZJ,1G7G,1GFY,1JF7,1KAK,1KAV,1LQF,1NL9,1NNY,1NO6,1NZ7,1OEM,1OEO,1OES,1OET,1OEU,1OEV,1ONY,1ONZ,1PH0,1PXH,1PYN,1Q1M,1Q6J,1Q6M,1Q6N,1Q6P,1Q6S,1Q6T,1QXK,1SUG,1T48,1T49,1T4J,1WAX,1XBO,2AZR,2B07,2BGD,2BGE,2CM2,2CM3,2CM7,2CM8,2CMA,2CMB,2CMC,2CNE,2CNF,2CNG,2CNH,2CNI,2F6T,2F6V,2F6W,2F6Y,2F6Z,2F70,2F71,2FJN,2H4G,2H4K,2HB1,2HNP,2HNQ,2QBP,2QBQ,2QBR,2QBS,2VEU,2VEV,2VEW,2VEX,2VEY,2ZMM,2ZN7,3A5J,3CWE,3D9C,3EAX,3EB1,3EU0,3I7Z,3I80,3SME,4BJO,4I8N,4QBW,4Y14,5K9V,5K9W,5KA0,5KA1,5T19,6B90

> <UniProt (SwissProt) Recommended Name of Target Chain>
Tyrosine-protein phosphatase non-receptor type 1

> <UniProt (SwissProt) Entry Name of Target Chain>
PTN1_HUMAN

> <UniProt (SwissProt) Primary ID of Target Chain>
P18031

> <UniProt (SwissProt) Secondary ID(s) of Target Chain>
Q5TGD8,Q9BQV9,Q9NQQ4

$$$$
 
  SciTegic10241817252D

 25 27  0  0  0  0            999 V2000
   -0.0153  -10.7474    0.0000 C   0  0
   -0.0166  -11.5751    0.0000 C   0  0
    0.6964  -11.9879    0.0000 C   0  0
    0.6944  -10.3346    0.0000 C   0  0
    1.4125  -10.7435    0.0000 C   0  0
    1.4116  -11.5724    0.0000 C   0  0
    2.1251  -11.9854    0.0000 C   0  0
    2.8442  -11.5740    0.0000 O   0  0
    2.8450  -10.7450    0.0000 C   0  0  1  0  0  0
    2.1269  -10.3274    0.0000 C   0  0
    3.5603  -10.3340    0.0000 C   0  0
    4.2739  -10.7480    0.0000 O   0  0
    3.5620   -9.5090    0.0000 O   0  0
   -0.7302  -10.3355    0.0000 N   0  0
   -1.4442  -10.7487    0.0000 C   0  0
   -2.1590  -10.3367    0.0000 C   0  0
   -1.4435  -11.5736    0.0000 O   0  0
   -2.8731  -10.7499    0.0000 C   0  0
   -3.5878  -10.3379    0.0000 C   0  0
   -3.6781   -9.5141    0.0000 C   0  0
   -4.4853   -9.3432    0.0000 S   0  0
   -4.8971  -10.0581    0.0000 C   0  0
   -4.3445  -10.6706    0.0000 S   0  0
   -5.4860   -9.4687    0.0000 C   0  0
   -5.3164  -10.7658    0.0000 C   0  0
 11 12  2  0
  2  3  1  0
 11 13  1  0
  3  6  2  0
  1 14  1  0
  1  2  2  0
 14 15  1  0
  5  4  2  0
 15 16  1  0
  4  1  1  0
 15 17  2  0
  5 10  1  0
 16 18  1  0
  6  7  1  0
 18 19  1  0
 19 20  1  0
  7  8  1  0
  9  8  1  0
  9 10  1  0
  5  6  1  0
 20 21  1  0
 21 22  1  0
 22 23  1  0
 23 19  1  0
  9 11  1  1
 22 24  1  0
 22 25  1  0
M  END
> <Name>
 

> <From>
www.bindingDB.org

> <BindingDB Reactant_set_id>
50513454

> <Ligand InChI>
InChI=1S/C18H23NO4S2/c1-18(2)24-10-14(25-18)5-6-16(20)19-13-4-3-11-9-23-15(17(21)22)8-12(11)7-13/h3-4,7,14-15H,5-6,8-10H2,1-2H3,(H,19,20)(H,21,22)/t14?,15-/m0/s1

> <Ligand InChI Key>
BBPBZPASZSZJRI-LOACHALJSA-N

> <BindingDB MonomerID>
50296373

> <BindingDB Ligand Name>
(3S)-6-[2-(2,2-Dimethyl-1,3-dithiolan-4-yl)ethylcarboxamido]-isochroman-3-carboxylic acid::CHEMBL556076

> <Target Name Assigned by Curator or DataSource>
Protein-tyrosine phosphatase 1B (PTP1B)

> <Target Source Organism According to Curator or DataSource>
Homo sapiens

> <IC50 (nM)>
385.7

> <Curation/DataSource>
ChEMBL

> <Article DOI>
10.1016/j.ejmech.2009.03.009

> <PMID>
19349096

> <Authors>
Lakshminarayana, N; Rajendra Prasad, Y; Gharat, L; Thomas, A; Ravikumar, P; Narayanan, S; Srinivasan, CV; Gopalan, B

> <Institution>
Glenmark Research Center

> <Link to Ligand in BindingDB>
http://www.bindingdb.org/bind/chemsearch/marvin/MolStructure.jsp?monomerid=50296373

> <Link to Ligand-Target Pair in BindingDB>
http://www.bindingdb.org/jsp/dbsearch/PrimarySearch_ki.jsp?energyterm=kJ/mole&tag=r21&monomerid=50296373&enzyme=Protein-tyrosine+phosphatase+1B+%28PTP1B%29&column=ki&startPg=0&Increment=50&submit=Search

> <PubChem CID>
44139779

> <PubChem SID>
104137904

> <ChEMBL ID of Ligand>
CHEMBL556076

> <ZINC ID of Ligand>
ZINC43018065

> <Number of Protein Chains in Target (>
1

> <BindingDB Target Chain Sequence>
MEMEKEFEQIDKSGSWAAIYQDIRHEASDFPCRVAKLPKNKNRNRYRDVSPFDHSRIKLHQEDNDYINASLIKMEEAQRSYILTQGPLPNTCGHFWEMVWEQKSRGVVMLNRVMEKGSLKCAQYWPQKEEKEMIFEDTNLKLTLISEDIKSYYTVRQLELENLTTQETREILHFHYTTWPDFGVPESPASFLNFLFKVRESGSLSPEHGPVVVHCSAGIGRSGTFCLADTCLLLMDKRKDPSSVDIKKVLLEMRKFRMGLIQTADQLRFSYLAVIEGAKFIMGDSSVQDQWKELSHEDLEPPPEHIPPPPRPPKRILEPHNGKCREFFPNHQWVKEETQEDKDCPIKEEKGSPLNAAPYGIESMSQDTEVRSRVVGGSLRGAQAASPAKGEPSLPEKDEDHALSYWKPFLVNMCVATVLTAGAYLCYRFLFNSNT

> <PDB ID(s) of Target Chain>
1BZJ,1G7G,1GFY,1JF7,1KAK,1KAV,1LQF,1NL9,1NNY,1NO6,1NZ7,1OEM,1OEO,1OES,1OET,1OEU,1OEV,1ONY,1ONZ,1PH0,1PXH,1PYN,1Q1M,1Q6J,1Q6M,1Q6N,1Q6P,1Q6S,1Q6T,1QXK,1SUG,1T48,1T49,1T4J,1WAX,1XBO,2AZR,2B07,2BGD,2BGE,2CM2,2CM3,2CM7,2CM8,2CMA,2CMB,2CMC,2CNE,2CNF,2CNG,2CNH,2CNI,2F6T,2F6V,2F6W,2F6Y,2F6Z,2F70,2F71,2FJN,2H4G,2H4K,2HB1,2HNP,2HNQ,2QBP,2QBQ,2QBR,2QBS,2VEU,2VEV,2VEW,2VEX,2VEY,2ZMM,2ZN7,3A5J,3CWE,3D9C,3EAX,3EB1,3EU0,3I7Z,3I80,3SME,4BJO,4I8N,4QBW,4Y14

> <UniProt (SwissProt) Recommended Name of Target Chain>
Tyrosine-protein phosphatase non-receptor type 1

> <UniProt (SwissProt) Entry Name of Target Chain>
PTN1_HUMAN

> <UniProt (SwissProt) Primary ID of Target Chain>
P18031

> <UniProt (SwissProt) Secondary ID(s) of Target Chain>
Q5TGD8,Q9BQV9,Q9NQQ4

$$$$

  SciTegic10241817252D

 30 34  0  0  0  0            999 V2000
   10.9948   -7.7432    0.0000 C   0  0
   10.7526   -8.5331    0.0000 C   0  0
   11.3153   -9.1359    0.0000 C   0  0
   11.7950   -7.5563    0.0000 C   0  0
   12.7974   -9.4236    0.0000 O   0  0
   12.3593   -8.1557    0.0000 C   0  0
   12.1176   -8.9487    0.0000 C   0  0
   13.1881   -8.1403    0.0000 C   0  0
   13.4570   -8.9243    0.0000 C   0  0
   14.2689   -9.0821    0.0000 C   0  0
   14.8124   -8.4567    0.0000 C   0  0
   14.5387   -7.6711    0.0000 C   0  0
   13.7278   -7.5170    0.0000 C   0  0
   11.0757   -9.9278    0.0000 C   0  0
   10.2730  -10.1140    0.0000 O   0  0
   11.6383  -10.5295    0.0000 O   0  0
   15.0745   -7.0445    0.0000 C   0  0
   15.8957   -7.1132    0.0000 N   0  0
   16.2144   -6.3536    0.0000 C   0  0
   15.5907   -5.8154    0.0000 S   0  0
   14.8859   -6.2426    0.0000 C   0  0
   17.0138   -6.1650    0.0000 C   0  0
   17.5780   -6.7672    0.0000 C   0  0
   18.3793   -6.5792    0.0000 C   0  0
   18.6179   -5.7894    0.0000 C   0  0
   18.0486   -5.1880    0.0000 C   0  0
   17.2494   -5.3788    0.0000 C   0  0
   19.4220   -5.5993    0.0000 C   0  0
   19.9872   -6.1991    0.0000 O   0  0
   19.6589   -4.8103    0.0000 O   0  0
  5  9  1  0
  8  6  1  0
 14 15  1  0
 14 16  2  0
  3 14  1  0
 20 21  1  0
  7  5  1  0
  1  2  1  0
 18 19  2  0
  6  4  1  0
  8  9  2  0
  4  1  2  0
 17 18  1  0
 19 20  1  0
 21 17  2  0
 12 17  1  0
  9 10  1  0
  6  7  2  0
 22 23  2  0
 10 11  2  0
 23 24  1  0
 24 25  2  0
 11 12  1  0
 25 26  1  0
  2  3  2  0
 26 27  2  0
 27 22  1  0
 19 22  1  0
 12 13  2  0
 13  8  1  0
  3  7  1  0
 28 29  1  0
 28 30  2  0
 25 28  1  0
M  END
> <From>
www.bindingDB.org

> <BindingDB Reactant_set_id>
50597563

> <Ligand InChI>
InChI=1S/C23H13NO5S/c25-22(26)13-6-4-12(5-7-13)21-24-18(11-30-21)14-8-9-19-17(10-14)15-2-1-3-16(23(27)28)20(15)29-19/h1-11H,(H,25,26)(H,27,28)

> <Ligand InChI Key>
OLLCUWXYFSWOKO-UHFFFAOYSA-N

> <BindingDB MonomerID>
50326159

> <BindingDB Ligand Name>
8-[2-(4-Carboxyphenyl)thiazol-4-yl]dibenzo[b,d]furan-4-carboxylic acid::CHEMBL1242735

> <Target Name Assigned by Curator or DataSource>
Protein-tyrosine phosphatase 1B (PTP1B)

> <Target Source Organism According to Curator or DataSource>
Homo sapiens

> <IC50 (nM)>
388

> <Curation/DataSource>
ChEMBL

> <Article DOI>
10.1016/j.ejmech.2010.05.020

> <PMID>
20627471

> <Authors>
Lakshminarayana, N; Prasad, YR; Gharat, L; Thomas, A; Narayanan, S; Raghuram, A; Srinivasan, CV; Gopalan, B

> <Institution>
Glenmark Research Center

> <Link to Ligand in BindingDB>
http://www.bindingdb.org/bind/chemsearch/marvin/MolStructure.jsp?monomerid=50326159

> <Link to Ligand-Target Pair in BindingDB>
http://www.bindingdb.org/jsp/dbsearch/PrimarySearch_ki.jsp?energyterm=kJ/mole&tag=r21&monomerid=50326159&enzyme=Protein-tyrosine+phosphatase+1B+%28PTP1B%29&column=ki&startPg=0&Increment=50&submit=Search

> <PubChem CID>
46933149

> <PubChem SID>
123105274

> <ChEMBL ID of Ligand>
CHEMBL1242735

> <ZINC ID of Ligand>
ZINC64553165

> <Number of Protein Chains in Target (>
1

> <BindingDB Target Chain Sequence>
MEMEKEFEQIDKSGSWAAIYQDIRHEASDFPCRVAKLPKNKNRNRYRDVSPFDHSRIKLHQEDNDYINASLIKMEEAQRSYILTQGPLPNTCGHFWEMVWEQKSRGVVMLNRVMEKGSLKCAQYWPQKEEKEMIFEDTNLKLTLISEDIKSYYTVRQLELENLTTQETREILHFHYTTWPDFGVPESPASFLNFLFKVRESGSLSPEHGPVVVHCSAGIGRSGTFCLADTCLLLMDKRKDPSSVDIKKVLLEMRKFRMGLIQTADQLRFSYLAVIEGAKFIMGDSSVQDQWKELSHEDLEPPPEHIPPPPRPPKRILEPHNGKCREFFPNHQWVKEETQEDKDCPIKEEKGSPLNAAPYGIESMSQDTEVRSRVVGGSLRGAQAASPAKGEPSLPEKDEDHALSYWKPFLVNMCVATVLTAGAYLCYRFLFNSNT

> <PDB ID(s) of Target Chain>
1BZJ,1G7G,1GFY,1JF7,1KAK,1KAV,1LQF,1NL9,1NNY,1NO6,1NZ7,1OEM,1OEO,1OES,1OET,1OEU,1OEV,1ONY,1ONZ,1PH0,1PXH,1PYN,1Q1M,1Q6J,1Q6M,1Q6N,1Q6P,1Q6S,1Q6T,1QXK,1SUG,1T48,1T49,1T4J,1WAX,1XBO,2AZR,2B07,2BGD,2BGE,2CM2,2CM3,2CM7,2CM8,2CMA,2CMB,2CMC,2CNE,2CNF,2CNG,2CNH,2CNI,2F6T,2F6V,2F6W,2F6Y,2F6Z,2F70,2F71,2FJN,2H4G,2H4K,2HB1,2HNP,2HNQ,2QBP,2QBQ,2QBR,2QBS,2VEU,2VEV,2VEW,2VEX,2VEY,2ZMM,2ZN7,3A5J,3CWE,3D9C,3EAX,3EB1,3EU0,3I7Z,3I80,3SME,4BJO,4I8N,4QBW,4Y14

> <UniProt (SwissProt) Recommended Name of Target Chain>
Tyrosine-protein phosphatase non-receptor type 1

> <UniProt (SwissProt) Entry Name of Target Chain>
PTN1_HUMAN

> <UniProt (SwissProt) Primary ID of Target Chain>
P18031

> <UniProt (SwissProt) Secondary ID(s) of Target Chain>
Q5TGD8,Q9BQV9,Q9NQQ4

$$$$

  SciTegic10241817252D

 18 19  0  0  0  0            999 V2000
    3.4944   -5.7416    0.0000 C   0  0
    3.4932   -6.5690    0.0000 C   0  0
    4.2081   -6.9819    0.0000 C   0  0
    4.9245   -6.5685    0.0000 C   0  0
    4.9216   -5.7380    0.0000 C   0  0
    4.2063   -5.3289    0.0000 C   0  0
    5.6346   -5.3228    0.0000 C   0  0
    6.3506   -5.7326    0.0000 C   0  0
    7.0635   -5.3174    0.0000 C   0  0
    7.7779   -5.7307    0.0000 C   0  0
    8.4903   -5.3162    0.0000 C   0  0
    8.4877   -4.4903    0.0000 C   0  0
    7.7666   -4.0807    0.0000 C   0  0
    7.0572   -4.4975    0.0000 C   0  0
    9.2000   -4.0741    0.0000 C   0  0
    2.7798   -5.3293    0.0000 O   0  0
    2.7784   -6.9809    0.0000 O   0  0
    9.1958   -3.2492    0.0000 O   0  0
  8  9  1  0
  4  5  2  0
  9 10  2  0
  2  3  2  0
 10 11  1  0
  5  6  1  0
 11 12  2  0
  6  1  2  0
 12 13  1  0
  1  2  1  0
 13 14  2  0
 14  9  1  0
  5  7  1  0
 12 15  1  0
  3  4  1  0
  1 16  1  0
  7  8  2  0
  2 17  1  0
 15 18  2  0
M  END
> <From>
www.bindingDB.org

> <BindingDB Reactant_set_id>
50848901

> <Ligand InChI>
InChI=1S/C15H12O3/c16-10-13-5-2-11(3-6-13)1-4-12-7-8-14(17)15(18)9-12/h1-10,17-18H/b4-1+

> <Ligand InChI Key>
FGLBPFDIWOLEHC-DAFODLJHSA-N

> <BindingDB MonomerID>
50216879

> <BindingDB Ligand Name>
(E)-4-(3,4-dihydroxystyryl)benzaldehyde::CHEMBL229912

> <Target Name Assigned by Curator or DataSource>
Protein-tyrosine phosphatase 1B (PTP1B)

> <Target Source Organism According to Curator or DataSource>
Homo sapiens

> <IC50 (nM)>
101000

> <Curation/DataSource>
ChEMBL

> <Article DOI>
10.1016/j.bmcl.2007.06.016

> <PMID>
17596944

> <Authors>
Jung, M; Lee, Y; Park, M; Kim, H; Kim, H; Lim, E; Tak, J; Sim, M; Lee, D; Park, N; Oh, WK; Hur, KY; Kang, ES; Lee, HC

> <Institution>
Yonsei University

> <Link to Ligand in BindingDB>
http://www.bindingdb.org/bind/chemsearch/marvin/MolStructure.jsp?monomerid=50216879

> <Link to Ligand-Target Pair in BindingDB>
http://www.bindingdb.org/jsp/dbsearch/PrimarySearch_ki.jsp?energyterm=kJ/mole&tag=r21&monomerid=50216879&enzyme=Protein-tyrosine+phosphatase+1B+%28PTP1B%29&column=ki&startPg=0&Increment=50&submit=Search

> <PubChem CID>
44432619

> <PubChem SID>
104091147

> <ChEMBL ID of Ligand>
CHEMBL229912

> <ZINC ID of Ligand>
ZINC28823001

> <Number of Protein Chains in Target (>
1

> <BindingDB Target Chain Sequence>
MEMEKEFEQIDKSGSWAAIYQDIRHEASDFPCRVAKLPKNKNRNRYRDVSPFDHSRIKLHQEDNDYINASLIKMEEAQRSYILTQGPLPNTCGHFWEMVWEQKSRGVVMLNRVMEKGSLKCAQYWPQKEEKEMIFEDTNLKLTLISEDIKSYYTVRQLELENLTTQETREILHFHYTTWPDFGVPESPASFLNFLFKVRESGSLSPEHGPVVVHCSAGIGRSGTFCLADTCLLLMDKRKDPSSVDIKKVLLEMRKFRMGLIQTADQLRFSYLAVIEGAKFIMGDSSVQDQWKELSHEDLEPPPEHIPPPPRPPKRILEPHNGKCREFFPNHQWVKEETQEDKDCPIKEEKGSPLNAAPYGIESMSQDTEVRSRVVGGSLRGAQAASPAKGEPSLPEKDEDHALSYWKPFLVNMCVATVLTAGAYLCYRFLFNSNT

> <PDB ID(s) of Target Chain>
1BZJ,1G7G,1GFY,1JF7,1KAK,1KAV,1LQF,1NL9,1NNY,1NO6,1NZ7,1OEM,1OEO,1OES,1OET,1OEU,1OEV,1ONY,1ONZ,1PH0,1PXH,1PYN,1Q1M,1Q6J,1Q6M,1Q6N,1Q6P,1Q6S,1Q6T,1QXK,1SUG,1T48,1T49,1T4J,1WAX,1XBO,2AZR,2B07,2BGD,2BGE,2CM2,2CM3,2CM7,2CM8,2CMA,2CMB,2CMC,2CNE,2CNF,2CNG,2CNH,2CNI,2F6T,2F6V,2F6W,2F6Y,2F6Z,2F70,2F71,2FJN,2H4G,2H4K,2HB1,2HNP,2HNQ,2QBP,2QBQ,2QBR,2QBS,2VEU,2VEV,2VEW,2VEX,2VEY,2ZMM,2ZN7,3A5J,3CWE,3D9C,3EAX,3EB1,3EU0,3I7Z,3I80,3SME,4BJO,4I8N,4QBW,4Y14

> <UniProt (SwissProt) Recommended Name of Target Chain>
Tyrosine-protein phosphatase non-receptor type 1

> <UniProt (SwissProt) Entry Name of Target Chain>
PTN1_HUMAN

> <UniProt (SwissProt) Primary ID of Target Chain>
P18031

> <UniProt (SwissProt) Secondary ID(s) of Target Chain>
Q5TGD8,Q9BQV9,Q9NQQ4

$$$$

  SciTegic10241817252D

 32 34  0  0  0  0            999 V2000
   26.0294  -22.3420    0.0000 C   0  0
   26.0720  -23.1659    0.0000 C   0  0
   26.8054  -23.5392    0.0000 C   0  0
   26.7164  -21.8934    0.0000 C   0  0
   27.4503  -22.2631    0.0000 C   0  0
   27.4944  -23.0901    0.0000 C   0  0
   25.2877  -21.9563    0.0000 O   0  0
   24.5890  -22.4004    0.0000 C   0  0
   23.8558  -22.0183    0.0000 C   0  0
   23.1569  -22.4607    0.0000 C   0  0
   22.3619  -22.2373    0.0000 S   0  0
   21.9105  -22.9238    0.0000 C   0  0
   22.4208  -23.5693    0.0000 N   0  0
   23.1889  -23.2797    0.0000 C   0  0
   23.8727  -23.7472    0.0000 C   0  0
   21.0884  -22.9175    0.0000 C   0  0
   20.6807  -22.2002    0.0000 C   0  0
   19.8570  -22.1936    0.0000 C   0  0
   19.4322  -22.9120    0.0000 C   0  0
   19.8445  -23.6218    0.0000 C   0  0
   20.6713  -23.6289    0.0000 C   0  0
   18.6086  -22.9232    0.0000 Cl  0  0
   28.1449  -21.8055    0.0000 C   0  0  3  0  0  0
   28.8405  -21.3484    0.0000 C   0  0
   27.6919  -21.1103    0.0000 C   0  0
   28.6062  -22.5047    0.0000 O   0  0
   28.0622  -20.3745    0.0000 O   0  0
   26.8683  -21.1586    0.0000 O   0  0
   29.5360  -20.8914    0.0000 F   0  0
   29.3018  -22.0476    0.0000 F   0  0
   28.3836  -20.6533    0.0000 F   0  0
   25.3820  -23.6138    0.0000 O   0  0
  1  2  2  0
  7  8  1  0
 16 17  2  0
  5  4  2  0
 17 18  1  0
  8  9  1  0
 18 19  2  0
  4  1  1  0
 19 20  1  0
  9 10  1  0
 20 21  2  0
 21 16  1  0
 12 16  1  0
 10 11  1  0
 19 22  1  0
  5  6  1  0
  5 23  1  0
 23 24  1  0
  2  3  1  0
 23 25  1  0
  3  6  2  0
 23 26  1  4
 11 12  1  0
 12 13  2  0
 25 27  2  0
 25 28  1  0
 13 14  1  0
 24 29  1  0
 14 10  2  0
 24 30  1  0
  1  7  1  0
 24 31  1  0
 14 15  1  0
  2 32  1  0
M  END
> <From>
www.bindingDB.org

> <BindingDB Reactant_set_id>
50403333

> <Ligand InChI>
InChI=1S/C21H17ClF3NO5S/c1-11-17(32-18(26-11)12-2-5-14(22)6-3-12)8-9-31-16-10-13(4-7-15(16)27)20(30,19(28)29)21(23,24)25/h2-7,10,27,30H,8-9H2,1H3,(H,28,29)

> <Ligand InChI Key>
WGILNBOSXMAIKS-UHFFFAOYSA-N

> <BindingDB MonomerID>
50224547

> <BindingDB Ligand Name>
2-(3-(2-(2-(4-chlorophenyl)-4-methylthiazol-5-yl)ethoxy)-4-hydroxyphenyl)-3,3,3-trifluoro-2-hydroxypropanoic acid::CHEMBL249351

> <Target Name Assigned by Curator or DataSource>
Protein-tyrosine phosphatase 1B (PTP1B)

> <Target Source Organism According to Curator or DataSource>
Homo sapiens

> <IC50 (nM)>
105000

> <Curation/DataSource>
ChEMBL

> <Article DOI>
10.1016/j.bmcl.2007.09.069

> <PMID>
17931864

> <Authors>
Adams, DR; Abraham, A; Asano, J; Breslin, C; Dick, CA; Ixkes, U; Johnston, BF; Johnston, D; Kewnay, J; Mackay, SP; MacKenzie, SJ; McFarlane, M; Mitchell, L; Spinks, D; Takano, Y

> <Institution>
Heriot-Watt University

> <Link to Ligand in BindingDB>
http://www.bindingdb.org/bind/chemsearch/marvin/MolStructure.jsp?monomerid=50224547

> <Link to Ligand-Target Pair in BindingDB>
http://www.bindingdb.org/jsp/dbsearch/PrimarySearch_ki.jsp?energyterm=kJ/mole&tag=r21&monomerid=50224547&enzyme=Protein-tyrosine+phosphatase+1B+%28PTP1B%29&column=ki&startPg=0&Increment=50&submit=Search

> <PubChem CID>
44444636

> <PubChem SID>
104096155

> <ChEMBL ID of Ligand>
CHEMBL249351

> <ZINC ID of Ligand>
ZINC28961449

> <Number of Protein Chains in Target (>
1

> <BindingDB Target Chain Sequence>
MEMEKEFEQIDKSGSWAAIYQDIRHEASDFPCRVAKLPKNKNRNRYRDVSPFDHSRIKLHQEDNDYINASLIKMEEAQRSYILTQGPLPNTCGHFWEMVWEQKSRGVVMLNRVMEKGSLKCAQYWPQKEEKEMIFEDTNLKLTLISEDIKSYYTVRQLELENLTTQETREILHFHYTTWPDFGVPESPASFLNFLFKVRESGSLSPEHGPVVVHCSAGIGRSGTFCLADTCLLLMDKRKDPSSVDIKKVLLEMRKFRMGLIQTADQLRFSYLAVIEGAKFIMGDSSVQDQWKELSHEDLEPPPEHIPPPPRPPKRILEPHNGKCREFFPNHQWVKEETQEDKDCPIKEEKGSPLNAAPYGIESMSQDTEVRSRVVGGSLRGAQAASPAKGEPSLPEKDEDHALSYWKPFLVNMCVATVLTAGAYLCYRFLFNSNT

> <PDB ID(s) of Target Chain>
1BZJ,1G7G,1GFY,1JF7,1KAK,1KAV,1LQF,1NL9,1NNY,1NO6,1NZ7,1OEM,1OEO,1OES,1OET,1OEU,1OEV,1ONY,1ONZ,1PH0,1PXH,1PYN,1Q1M,1Q6J,1Q6M,1Q6N,1Q6P,1Q6S,1Q6T,1QXK,1SUG,1T48,1T49,1T4J,1WAX,1XBO,2AZR,2B07,2BGD,2BGE,2CM2,2CM3,2CM7,2CM8,2CMA,2CMB,2CMC,2CNE,2CNF,2CNG,2CNH,2CNI,2F6T,2F6V,2F6W,2F6Y,2F6Z,2F70,2F71,2FJN,2H4G,2H4K,2HB1,2HNP,2HNQ,2QBP,2QBQ,2QBR,2QBS,2VEU,2VEV,2VEW,2VEX,2VEY,2ZMM,2ZN7,3A5J,3CWE,3D9C,3EAX,3EB1,3EU0,3I7Z,3I80,3SME,4BJO,4I8N,4QBW,4Y14

> <UniProt (SwissProt) Recommended Name of Target Chain>
Tyrosine-protein phosphatase non-receptor type 1

> <UniProt (SwissProt) Entry Name of Target Chain>
PTN1_HUMAN

> <UniProt (SwissProt) Primary ID of Target Chain>
P18031

> <UniProt (SwissProt) Secondary ID(s) of Target Chain>
Q5TGD8,Q9BQV9,Q9NQQ4

$$$$

  SciTegic10241817252D

 22 24  0  0  0  0            999 V2000
   -3.7306   -3.7250    0.0000 C   0  0
   -3.7318   -4.5523    0.0000 C   0  0
   -3.0169   -4.9652    0.0000 C   0  0
   -2.3005   -4.5519    0.0000 C   0  0
   -2.3034   -3.7213    0.0000 C   0  0
   -3.0187   -3.3122    0.0000 C   0  0
   -1.5904   -3.3061    0.0000 C   0  0
   -0.8744   -3.7159    0.0000 C   0  0
   -1.5936   -2.4811    0.0000 O   0  0
   -0.1615   -3.3008    0.0000 C   0  0
    0.5545   -3.7106    0.0000 C   0  0
    0.5545   -4.5344    0.0000 C   0  0
    1.2697   -4.9441    0.0000 C   0  0
    1.2620   -3.2937    0.0000 C   0  0
   -4.4419   -3.3106    0.0000 N   0  3
   -5.1563   -3.7232    0.0000 O   0  0
   -4.4421   -2.4856    0.0000 O   0  5
    1.9804   -3.6989    0.0000 C   0  0
    1.9807   -4.5273    0.0000 C   0  0
    2.7687   -4.7831    0.0000 O   0  0
    3.2555   -4.1127    0.0000 C   0  0
    2.7682   -3.4427    0.0000 O   0  0
 10 11  1  0
  5  6  1  0
 11 12  2  0
  6  1  2  0
 12 13  1  0
 13 19  2  0
 14 11  1  0
  1  2  1  0
 14 18  2  0
  5  7  1  0
  3  4  1  0
  7  8  1  0
 15 16  2  0
 15 17  1  0
  1 15  1  0
 18 19  1  0
  7  9  2  0
  4  5  2  0
  8 10  2  0
  2  3  2  0
 19 20  1  0
 20 21  1  0
 21 22  1  0
 22 18  1  0
M  CHG  2  15   1  17  -1
M  END
> <From>
www.bindingDB.org

> <BindingDB Reactant_set_id>
50715199

> <Ligand InChI>
InChI=1S/C16H11NO5/c18-14(12-2-1-3-13(9-12)17(19)20)6-4-11-5-7-15-16(8-11)22-10-21-15/h1-9H,10H2/b6-4+

> <Ligand InChI Key>
MALGARLLWBWYQV-GQCTYLIASA-N

> <BindingDB MonomerID>
50363152

> <BindingDB Ligand Name>
CHEMBL455469

> <Target Name Assigned by Curator or DataSource>
Protein-tyrosine phosphatase 1B (PTP1B)

> <Target Source Organism According to Curator or DataSource>
Homo sapiens

> <IC50 (nM)>
107000

> <Curation/DataSource>
ChEMBL

> <Article DOI>
10.1021/jm2012062

> <PMID>
22136336

> <Authors>
Chiaradia, LD; Martins, PG; Cordeiro, MN; Guido, RV; Ecco, G; Andricopulo, AD; Yunes, RA; Vernal, J; Nunes, RJ; Terenzi, H

> <Institution>
Universidade Federal de Santa Catarina

> <Link to Ligand in BindingDB>
http://www.bindingdb.org/bind/chemsearch/marvin/MolStructure.jsp?monomerid=50363152

> <Link to Ligand-Target Pair in BindingDB>
http://www.bindingdb.org/jsp/dbsearch/PrimarySearch_ki.jsp?energyterm=kJ/mole&tag=r21&monomerid=50363152&enzyme=Protein-tyrosine+phosphatase+1B+%28PTP1B%29&column=ki&startPg=0&Increment=50&submit=Search

> <PubChem CID>
5383850

> <PubChem SID>
136967214

> <ChEMBL ID of Ligand>
CHEMBL455469

> <ZINC ID of Ligand>
ZINC04276689

> <Number of Protein Chains in Target (>
1

> <BindingDB Target Chain Sequence>
MEMEKEFEQIDKSGSWAAIYQDIRHEASDFPCRVAKLPKNKNRNRYRDVSPFDHSRIKLHQEDNDYINASLIKMEEAQRSYILTQGPLPNTCGHFWEMVWEQKSRGVVMLNRVMEKGSLKCAQYWPQKEEKEMIFEDTNLKLTLISEDIKSYYTVRQLELENLTTQETREILHFHYTTWPDFGVPESPASFLNFLFKVRESGSLSPEHGPVVVHCSAGIGRSGTFCLADTCLLLMDKRKDPSSVDIKKVLLEMRKFRMGLIQTADQLRFSYLAVIEGAKFIMGDSSVQDQWKELSHEDLEPPPEHIPPPPRPPKRILEPHNGKCREFFPNHQWVKEETQEDKDCPIKEEKGSPLNAAPYGIESMSQDTEVRSRVVGGSLRGAQAASPAKGEPSLPEKDEDHALSYWKPFLVNMCVATVLTAGAYLCYRFLFNSNT

> <PDB ID(s) of Target Chain>
1BZJ,1G7G,1GFY,1JF7,1KAK,1KAV,1LQF,1NL9,1NNY,1NO6,1NZ7,1OEM,1OEO,1OES,1OET,1OEU,1OEV,1ONY,1ONZ,1PH0,1PXH,1PYN,1Q1M,1Q6J,1Q6M,1Q6N,1Q6P,1Q6S,1Q6T,1QXK,1SUG,1T48,1T49,1T4J,1WAX,1XBO,2AZR,2B07,2BGD,2BGE,2CM2,2CM3,2CM7,2CM8,2CMA,2CMB,2CMC,2CNE,2CNF,2CNG,2CNH,2CNI,2F6T,2F6V,2F6W,2F6Y,2F6Z,2F70,2F71,2FJN,2H4G,2H4K,2HB1,2HNP,2HNQ,2QBP,2QBQ,2QBR,2QBS,2VEU,2VEV,2VEW,2VEX,2VEY,2ZMM,2ZN7,3A5J,3CWE,3D9C,3EAX,3EB1,3EU0,3I7Z,3I80,3SME,4BJO,4I8N,4QBW,4Y14

> <UniProt (SwissProt) Recommended Name of Target Chain>
Tyrosine-protein phosphatase non-receptor type 1

> <UniProt (SwissProt) Entry Name of Target Chain>
PTN1_HUMAN

> <UniProt (SwissProt) Primary ID of Target Chain>
P18031

> <UniProt (SwissProt) Secondary ID(s) of Target Chain>
Q5TGD8,Q9BQV9,Q9NQQ4

$$$$

  SciTegic10241817252D

 24 25  0  0  1  0            999 V2000
    6.4526   -6.4058    0.0000 S   0  0
    4.3225   -9.3108    0.0000 C   0  0  2  0  0  0
    5.0351   -8.8942    0.0000 C   0  0  1  0  0  0
    4.3264  -10.1325    0.0000 C   0  0  1  0  0  0
    5.0273   -8.0647    0.0000 C   0  0
    5.7516   -9.3031    0.0000 C   0  0
    5.7400   -6.8264    0.0000 O   0  0
    5.7516  -10.1325    0.0000 C   0  0
    5.7400   -7.6519    0.0000 C   0  0
    5.0351  -10.5414    0.0000 C   0  0
    3.6098  -10.5414    0.0000 C   0  0
    6.4486   -5.5842    0.0000 O   0  0
    7.0328   -6.9900    0.0000 O   0  0
    7.1652   -5.9930    0.0000 O   0  0
    3.6098   -8.8942    0.0000 C   0  0
    6.4603   -8.0647    0.0000 C   0  0
    4.3147   -8.4853    0.0000 C   0  0
    2.9011  -10.1325    0.0000 C   0  0
    6.4643   -8.8903    0.0000 C   0  0
    2.9011   -9.3108    0.0000 C   0  0
    4.0187  -11.2540    0.0000 C   0  0
    3.0257  -11.1255    0.0000 C   0  0
    7.1769   -7.6442    0.0000 C   0  0
    6.6706   -8.8591    0.0000 C   0  0
  2  3  1  0
  3  5  1  1
  2  4  1  0
  5  9  1  0
  3  6  1  0
  7  1  1  0
  8  6  2  0
  9  7  1  0
 10  8  1  0
  4 11  1  0
 12  1  2  0
 13  1  2  0
 14  1  1  0
  2 15  1  0
 16  9  1  0
  2 17  1  1
 18 20  1  0
 19  6  1  0
 20 15  1  0
 11 21  1  0
 11 22  1  0
 23 16  1  0
 24 16  1  0
  4 10  1  1
 18 11  1  0
M  END
> <From>
www.bindingDB.org

> <BindingDB Reactant_set_id>
50006811

> <Ligand InChI>
InChI=1S/C19H34O4S/c1-13(2)16(23-24(20,21)22)12-15-14(3)8-9-17-18(4,5)10-7-11-19(15,17)6/h8,13,15-17H,7,9-12H2,1-6H3,(H,20,21,22)/t15-,16?,17-,19+/m0/s1

> <Ligand InChI Key>
JCMCXNPYUSHIHF-SGWQOPTRSA-N

> <BindingDB MonomerID>
50289901

> <BindingDB Ligand Name>
CHEMBL59794::Sulfuric acid mono-[2-methyl-1-((1S,4aS,8aS)-2,5,5,8a-tetramethyl-1,4,4a,5,6,7,8,8a-octahydro-naphthalen-1-ylmethyl)-propyl] ester

> <Target Name Assigned by Curator or DataSource>
Protein-tyrosine phosphatase 1B

> <Target Source Organism According to Curator or DataSource>
Homo sapiens

> <IC50 (nM)>
110000

> <Curation/DataSource>
ChEMBL

> <Article DOI>
10.1016/S0960-894X(97)00357-0

> <Authors>
Cebula, RE; Blanchard, JL; Boisclair, MD; Pal, K; Bockovich, NJ

> <Institution>
TBA

> <Link to Ligand in BindingDB>
http://www.bindingdb.org/bind/chemsearch/marvin/MolStructure.jsp?monomerid=50289901

> <Link to Ligand-Target Pair in BindingDB>
http://www.bindingdb.org/jsp/dbsearch/PrimarySearch_ki.jsp?energyterm=kJ/mole&tag=r21&monomerid=50289901&enzyme=Protein-tyrosine+phosphatase+1B&column=ki&startPg=0&Increment=50&submit=Search

> <PubChem CID>
44303580

> <PubChem SID>
104131472

> <ChEMBL ID of Ligand>
CHEMBL59794

> <ZINC ID of Ligand>
ZINC26149444

> <Number of Protein Chains in Target (>
1

> <BindingDB Target Chain Sequence>
MEMEKEFEQIDKSGSWAAIYQDIRHEASDFPCRVAKLPKNKNRNRYRDVSPFDHSRIKLHQEDNDYINASLIKMEEAQRSYILTQGPLPNTCGHFWEMVWEQKSRGVVMLNRVMEKGSLKCAQYWPQKEEKEMIFEDTNLKLTLISEDIKSYYTVRQLELENLTTQETREILHFHYTTWPDFGVPESPASFLNFLFKVRESGSLSPEHGPVVVHCSAGIGRSGTFCLADTCLLLMDKRKDPSSVDIKKVLLEMRKFRMGLIQTADQLRFSYLAVIEGAKFIMGDSSVQDQWKELSHEDLEPPPEHIPPPPRPPKRILEPHNGKCREFFPNHQWVKEETQEDKDCPIKEEKGSPLNAAPYGIESMSQDTEVRSRVVGGSLRGAQAASPAKGEPSLPEKDEDHALSYWKPFLVNMCVATVLTAGAYLCYRFLFNSNT

> <PDB ID(s) of Target Chain>
1BZJ,1G7G,1GFY,1JF7,1KAK,1KAV,1LQF,1NL9,1NNY,1NO6,1NZ7,1OEM,1OEO,1OES,1OET,1OEU,1OEV,1ONY,1ONZ,1PH0,1PXH,1PYN,1Q1M,1Q6J,1Q6M,1Q6N,1Q6P,1Q6S,1Q6T,1QXK,1SUG,1T48,1T49,1T4J,1WAX,1XBO,2AZR,2B07,2BGD,2BGE,2CM2,2CM3,2CM7,2CM8,2CMA,2CMB,2CMC,2CNE,2CNF,2CNG,2CNH,2CNI,2F6T,2F6V,2F6W,2F6Y,2F6Z,2F70,2F71,2FJN,2H4G,2H4K,2HB1,2HNP,2HNQ,2QBP,2QBQ,2QBR,2QBS,2VEU,2VEV,2VEW,2VEX,2VEY,2ZMM,2ZN7,3A5J,3CWE,3D9C,3EAX,3EB1,3EU0,3I7Z,3I80,3SME,4BJO,4I8N,4QBW,4Y14,5K9V,5K9W,5KA0,5KA1,5T19,6B90

> <UniProt (SwissProt) Recommended Name of Target Chain>
Tyrosine-protein phosphatase non-receptor type 1

> <UniProt (SwissProt) Entry Name of Target Chain>
PTN1_HUMAN

> <UniProt (SwissProt) Primary ID of Target Chain>
P18031

> <UniProt (SwissProt) Secondary ID(s) of Target Chain>
Q5TGD8,Q9BQV9,Q9NQQ4

$$$$
1
  SciTegic10241817252D

 30 32  0  0  0  0            999 V2000
   -2.1563    1.5482    0.0000 C   0  0
   -2.5688    2.8177    0.0000 C   0  0
   -2.8237    2.0332    0.0000 C   0  0
   -1.4888    2.0332    0.0000 O   0  0
   -1.7437    2.8177    0.0000 N   0  0
   -3.0537    3.4852    0.0000 C   0  0
   -2.7181    4.2388    0.0000 O   0  0
   -3.8742    3.3989    0.0000 O   0  0
   -2.1563    0.7232    0.0000 C   0  0
   -2.8707    0.3107    0.0000 C   0  0
   -2.8707   -0.5143    0.0000 C   0  0
   -2.1563   -0.9268    0.0000 C   0  0
   -1.4418   -0.5143    0.0000 C   0  0
   -1.4418    0.3107    0.0000 C   0  0
   -3.5852    0.7232    0.0000 F   0  0
   -0.7273   -0.9268    0.0000 C   0  0
   -0.0128   -0.5143    0.0000 C   0  0
    0.7016   -0.9268    0.0000 C   0  0
    1.4161   -0.5143    0.0000 O   0  0
    2.1306   -0.9268    0.0000 C   0  0
    2.8450   -0.5143    0.0000 C   0  0
    2.1306   -1.7518    0.0000 C   0  0
    2.8450   -2.1643    0.0000 C   0  0
    3.5595   -1.7518    0.0000 C   0  0
    3.5595   -0.9268    0.0000 C   0  0
    2.8450    0.3107    0.0000 C   0  0
    3.5595    0.7232    0.0000 O   0  0
    2.1306    0.7232    0.0000 O   0  0
    1.4161    0.3107    0.0000 C   0  0
    4.2740   -0.5143    0.0000 O   0  0
  1  4  1  0
  1  3  2  0
  4  5  1  0
  5  2  2  0
  2  3  1  0
  1  9  1  0
  2  6  1  0
  6  8  1  0
  6  7  2  0
  9 10  2  0
  9 14  1  0
 10 11  1  0
 11 12  2  0
 12 13  1  0
 13 14  2  0
 10 15  1  0
 13 16  1  0
 16 17  2  0
 17 18  1  0
 18 19  1  0
 19 20  1  0
 21 20  2  0
 20 22  1  0
 21 25  1  0
 22 23  2  0
 23 24  1  0
 24 25  2  0
 21 26  1  0
 26 27  2  0
 26 28  1  0
 28 29  1  0
 25 30  1  0
M  END
> <Name>
1

> <From>
www.bindingDB.org

> <BindingDB Reactant_set_id>
50403339

> <Ligand InChI>
InChI=1S/C21H16FNO7/c1-28-21(27)19-16(24)5-2-6-17(19)29-9-3-4-12-7-8-14(22)13(10-12)18-11-15(20(25)26)23-30-18/h2-8,10-11,24H,9H2,1H3,(H,25,26)/b4-3+

> <Ligand InChI Key>
QKHWJUMLYAYZFS-ONEGZZNKSA-N

> <BindingDB MonomerID>
13990

> <BindingDB Ligand Name>
5-{2-fluoro-5-[(1E)-3-[3-hydroxy-2-(methoxycarbonyl)phenoxy]prop-1-en-1-yl]phenyl}-1,2-oxazole-3-carboxylic acid::CHEMBL117869::Isoxazole carboxylic acid analog 1

> <Target Name Assigned by Curator or DataSource>
Protein-tyrosine phosphatase 1B (PTP1B)

> <Target Source Organism According to Curator or DataSource>
Homo sapiens

> <IC50 (nM)>
110000

> <Curation/DataSource>
ChEMBL

> <Article DOI>
10.1016/j.bmcl.2007.09.069

> <PMID>
17931864

> <Authors>
Adams, DR; Abraham, A; Asano, J; Breslin, C; Dick, CA; Ixkes, U; Johnston, BF; Johnston, D; Kewnay, J; Mackay, SP; MacKenzie, SJ; McFarlane, M; Mitchell, L; Spinks, D; Takano, Y

> <Institution>
Heriot-Watt University

> <Link to Ligand in BindingDB>
http://www.bindingdb.org/bind/chemsearch/marvin/MolStructure.jsp?monomerid=13990

> <Link to Ligand-Target Pair in BindingDB>
http://www.bindingdb.org/jsp/dbsearch/PrimarySearch_ki.jsp?energyterm=kJ/mole&tag=r21&monomerid=13990&enzyme=Protein-tyrosine+phosphatase+1B+%28PTP1B%29&column=ki&startPg=0&Increment=50&submit=Search

> <Ligand HET ID in PDB>
234

> <PDB ID(s) for Ligand-Target Complex>
1Q1M

> <PubChem CID>
447994

> <PubChem SID>
46514356

> <ChEMBL ID of Ligand>
CHEMBL117869

> <DrugBank ID of Ligand>
DB02014

> <ZINC ID of Ligand>
ZINC02047375

> <Number of Protein Chains in Target (>
1

> <BindingDB Target Chain Sequence>
MEMEKEFEQIDKSGSWAAIYQDIRHEASDFPCRVAKLPKNKNRNRYRDVSPFDHSRIKLHQEDNDYINASLIKMEEAQRSYILTQGPLPNTCGHFWEMVWEQKSRGVVMLNRVMEKGSLKCAQYWPQKEEKEMIFEDTNLKLTLISEDIKSYYTVRQLELENLTTQETREILHFHYTTWPDFGVPESPASFLNFLFKVRESGSLSPEHGPVVVHCSAGIGRSGTFCLADTCLLLMDKRKDPSSVDIKKVLLEMRKFRMGLIQTADQLRFSYLAVIEGAKFIMGDSSVQDQWKELSHEDLEPPPEHIPPPPRPPKRILEPHNGKCREFFPNHQWVKEETQEDKDCPIKEEKGSPLNAAPYGIESMSQDTEVRSRVVGGSLRGAQAASPAKGEPSLPEKDEDHALSYWKPFLVNMCVATVLTAGAYLCYRFLFNSNT

> <PDB ID(s) of Target Chain>
1BZJ,1G7G,1GFY,1JF7,1KAK,1KAV,1LQF,1NL9,1NNY,1NO6,1NZ7,1OEM,1OEO,1OES,1OET,1OEU,1OEV,1ONY,1ONZ,1PH0,1PXH,1PYN,1Q1M,1Q6J,1Q6M,1Q6N,1Q6P,1Q6S,1Q6T,1QXK,1SUG,1T48,1T49,1T4J,1WAX,1XBO,2AZR,2B07,2BGD,2BGE,2CM2,2CM3,2CM7,2CM8,2CMA,2CMB,2CMC,2CNE,2CNF,2CNG,2CNH,2CNI,2F6T,2F6V,2F6W,2F6Y,2F6Z,2F70,2F71,2FJN,2H4G,2H4K,2HB1,2HNP,2HNQ,2QBP,2QBQ,2QBR,2QBS,2VEU,2VEV,2VEW,2VEX,2VEY,2ZMM,2ZN7,3A5J,3CWE,3D9C,3EAX,3EB1,3EU0,3I7Z,3I80,3SME,4BJO,4I8N,4QBW,4Y14

> <UniProt (SwissProt) Recommended Name of Target Chain>
Tyrosine-protein phosphatase non-receptor type 1

> <UniProt (SwissProt) Entry Name of Target Chain>
PTN1_HUMAN

> <UniProt (SwissProt) Primary ID of Target Chain>
P18031

> <UniProt (SwissProt) Secondary ID(s) of Target Chain>
Q5TGD8,Q9BQV9,Q9NQQ4

$$$$

  SciTegic10241817252D

 39 42  0  0  0  0            999 V2000
   -0.4847  -15.0233    0.0000 C   0  0
   -0.4858  -15.8505    0.0000 C   0  0
    0.2289  -16.2633    0.0000 C   0  0
    0.9452  -15.8501    0.0000 C   0  0
    0.9424  -15.0196    0.0000 C   0  0
    0.2271  -14.6105    0.0000 C   0  0
    1.6552  -14.6044    0.0000 C   0  0
    1.6521  -13.7795    0.0000 N   0  0
    2.3649  -13.3645    0.0000 C   0  0
    0.9362  -13.3698    0.0000 S   0  0
    0.2167  -12.9568    0.0000 C   0  0
    0.5259  -14.0855    0.0000 O   0  0
    1.3504  -12.6564    0.0000 O   0  0
    0.2173  -12.1262    0.0000 C   0  0
   -0.5013  -11.7133    0.0000 C   0  0
   -1.2198  -12.1300    0.0000 C   0  0
   -1.2150  -12.9638    0.0000 C   0  0
   -0.4956  -13.3730    0.0000 C   0  0
   -1.2006  -16.2624    0.0000 C   0  0
   -1.9554  -15.9278    0.0000 C   0  0
   -2.5078  -16.5403    0.0000 S   0  0
   -2.0959  -17.2551    0.0000 N   0  0
   -1.2890  -17.0841    0.0000 N   0  0
    3.0808  -13.7742    0.0000 C   0  0
    3.0791  -14.5994    0.0000 C   0  0
    3.7943  -15.0091    0.0000 C   0  0
    4.5081  -14.5939    0.0000 C   0  0
    4.5023  -13.7647    0.0000 C   0  0
    3.7867  -13.3588    0.0000 C   0  0
   -1.9357  -11.7203    0.0000 O   0  0
   -2.6485  -12.1355    0.0000 C   0  0
   -3.3645  -11.7259    0.0000 C   0  0
   -3.3663  -10.8982    0.0000 O   0  0
   -4.0759  -12.1383    0.0000 O   0  0
    5.2245  -15.0027    0.0000 S   0  0
    5.9368  -14.5866    0.0000 C   0  0
    6.6533  -14.9954    0.0000 C   0  0
    6.6601  -15.8200    0.0000 O   0  0
    7.3683  -14.5789    0.0000 O   0  0
  2 19  1  0
 19 20  2  0
  4  5  2  0
  8 10  1  0
  2  3  2  0
 10 11  1  0
 20 21  1  0
 21 22  1  0
 22 23  2  0
 23 19  1  0
  5  6  1  0
  9 24  1  0
 10 12  2  0
 24 25  2  0
  6  1  2  0
 25 26  1  0
 10 13  2  0
 26 27  2  0
  1  2  1  0
 27 28  1  0
 11 14  2  0
 28 29  2  0
 29 24  1  0
  5  7  1  0
 16 30  1  0
 14 15  1  0
 30 31  1  0
  3  4  1  0
 31 32  1  0
 15 16  2  0
  7  8  1  0
 32 33  1  0
 32 34  2  0
 16 17  1  0
 27 35  1  0
 35 36  1  0
 17 18  2  0
 36 37  1  0
 18 11  1  0
  8  9  1  0
 37 38  1  0
 37 39  2  0
M  END
> <From>
www.bindingDB.org

> <BindingDB Reactant_set_id>
50867350

> <Ligand InChI>
InChI=1S/C26H23N3O7S3/c30-25(31)15-36-21-7-11-23(12-8-21)39(34,35)29(14-19-3-9-22(10-4-19)37-17-26(32)33)13-18-1-5-20(6-2-18)24-16-38-28-27-24/h1-12,16H,13-15,17H2,(H,30,31)(H,32,33)

> <Ligand InChI Key>
ZXIYHAFTLFYFCE-UHFFFAOYSA-N

> <BindingDB MonomerID>
50376634

> <BindingDB Ligand Name>
CHEMBL408711

> <Target Name Assigned by Curator or DataSource>
Protein-tyrosine phosphatase 1B (PTP1B)

> <Target Source Organism According to Curator or DataSource>
Homo sapiens

> <IC50 (nM)>
114000

> <Curation/DataSource>
ChEMBL

> <Article DOI>
10.1016/j.bmcl.2008.03.007

> <PMID>
18372175

> <Authors>
Holmes, CP; Li, X; Pan, Y; Xu, C; Bhandari, A; Moody, CM; Miguel, JA; Ferla, SW; De Francisco, MN; Frederick, BT; Zhou, S; Macher, N; Jang, L; Irvine, JD; Grove, JR

> <Institution>
Affymax, Inc.

> <Link to Ligand in BindingDB>
http://www.bindingdb.org/bind/chemsearch/marvin/MolStructure.jsp?monomerid=50376634

> <Link to Ligand-Target Pair in BindingDB>
http://www.bindingdb.org/jsp/dbsearch/PrimarySearch_ki.jsp?energyterm=kJ/mole&tag=r21&monomerid=50376634&enzyme=Protein-tyrosine+phosphatase+1B+%28PTP1B%29&column=ki&startPg=0&Increment=50&submit=Search

> <PubChem CID>
44450251

> <PubChem SID>
160855717

> <ChEMBL ID of Ligand>
CHEMBL408711

> <ZINC ID of Ligand>
ZINC29051174

> <Number of Protein Chains in Target (>
1

> <BindingDB Target Chain Sequence>
MEMEKEFEQIDKSGSWAAIYQDIRHEASDFPCRVAKLPKNKNRNRYRDVSPFDHSRIKLHQEDNDYINASLIKMEEAQRSYILTQGPLPNTCGHFWEMVWEQKSRGVVMLNRVMEKGSLKCAQYWPQKEEKEMIFEDTNLKLTLISEDIKSYYTVRQLELENLTTQETREILHFHYTTWPDFGVPESPASFLNFLFKVRESGSLSPEHGPVVVHCSAGIGRSGTFCLADTCLLLMDKRKDPSSVDIKKVLLEMRKFRMGLIQTADQLRFSYLAVIEGAKFIMGDSSVQDQWKELSHEDLEPPPEHIPPPPRPPKRILEPHNGKCREFFPNHQWVKEETQEDKDCPIKEEKGSPLNAAPYGIESMSQDTEVRSRVVGGSLRGAQAASPAKGEPSLPEKDEDHALSYWKPFLVNMCVATVLTAGAYLCYRFLFNSNT

> <PDB ID(s) of Target Chain>
1BZJ,1G7G,1GFY,1JF7,1KAK,1KAV,1LQF,1NL9,1NNY,1NO6,1NZ7,1OEM,1OEO,1OES,1OET,1OEU,1OEV,1ONY,1ONZ,1PH0,1PXH,1PYN,1Q1M,1Q6J,1Q6M,1Q6N,1Q6P,1Q6S,1Q6T,1QXK,1SUG,1T48,1T49,1T4J,1WAX,1XBO,2AZR,2B07,2BGD,2BGE,2CM2,2CM3,2CM7,2CM8,2CMA,2CMB,2CMC,2CNE,2CNF,2CNG,2CNH,2CNI,2F6T,2F6V,2F6W,2F6Y,2F6Z,2F70,2F71,2FJN,2H4G,2H4K,2HB1,2HNP,2HNQ,2QBP,2QBQ,2QBR,2QBS,2VEU,2VEV,2VEW,2VEX,2VEY,2ZMM,2ZN7,3A5J,3CWE,3D9C,3EAX,3EB1,3EU0,3I7Z,3I80,3SME,4BJO,4I8N,4QBW,4Y14

> <UniProt (SwissProt) Recommended Name of Target Chain>
Tyrosine-protein phosphatase non-receptor type 1

> <UniProt (SwissProt) Entry Name of Target Chain>
PTN1_HUMAN

> <UniProt (SwissProt) Primary ID of Target Chain>
P18031

> <UniProt (SwissProt) Secondary ID(s) of Target Chain>
Q5TGD8,Q9BQV9,Q9NQQ4

$$$$

  SciTegic10241817252D

 34 37  0  0  0  0            999 V2000
   10.5905  -14.1531    0.0000 C   0  0
   10.5893  -14.9802    0.0000 C   0  0
   11.3040  -15.3929    0.0000 C   0  0
   12.0201  -14.9797    0.0000 C   0  0
   12.0172  -14.1495    0.0000 C   0  0
   11.3021  -13.7405    0.0000 C   0  0
   12.7299  -13.7345    0.0000 C   0  0
   12.7267  -12.9098    0.0000 N   0  0
   13.4395  -12.4947    0.0000 C   0  0
   12.0110  -12.5001    0.0000 S   0  0
   11.2917  -12.0873    0.0000 C   0  0
   11.6010  -13.2156    0.0000 O   0  0
   12.4252  -11.7869    0.0000 O   0  0
   11.2924  -11.2568    0.0000 C   0  0
   10.5739  -10.8440    0.0000 C   0  0
    9.8557  -11.2606    0.0000 C   0  0
    9.8605  -12.0943    0.0000 C   0  0
   10.5795  -12.5032    0.0000 C   0  0
    9.8748  -15.3920    0.0000 C   0  0
    9.1203  -15.0574    0.0000 C   0  0
    8.5680  -15.6699    0.0000 S   0  0
    8.9797  -16.3844    0.0000 N   0  0
    9.7865  -16.2135    0.0000 N   0  0
   14.1552  -12.9044    0.0000 C   0  0
   14.1535  -13.7294    0.0000 C   0  0
   14.8684  -14.1390    0.0000 C   0  0
   15.5820  -13.7239    0.0000 C   0  0
   15.5763  -12.8950    0.0000 C   0  0
   14.8608  -12.4891    0.0000 C   0  0
   16.2983  -14.1326    0.0000 S   0  0
   17.0105  -13.7166    0.0000 C   0  0
   17.7267  -14.1253    0.0000 C   0  0
   17.7336  -14.9496    0.0000 O   0  0
   18.4415  -13.7090    0.0000 O   0  0
 16 17  2  0
 17 18  1  0
 18 11  2  0
  8  9  1  0
  2 19  1  0
 19 20  2  0
  4  5  2  0
  8 10  1  0
  2  3  2  0
 10 11  1  0
 20 21  1  0
 21 22  1  0
 22 23  2  0
 23 19  1  0
  5  6  1  0
  9 24  1  0
 10 12  2  0
 24 25  2  0
  6  1  2  0
 25 26  1  0
 10 13  2  0
 26 27  2  0
  1  2  1  0
 27 28  1  0
 11 14  1  0
 28 29  2  0
 29 24  1  0
  5  7  1  0
 27 30  1  0
 14 15  2  0
 30 31  1  0
  3  4  1  0
 31 32  1  0
 15 16  1  0
  7  8  1  0
 32 33  1  0
 32 34  2  0
M  END
> <From>
www.bindingDB.org

> <BindingDB Reactant_set_id>
50867327

> <Ligand InChI>
InChI=1S/C24H21N3O4S3/c28-24(29)17-32-21-12-8-19(9-13-21)15-27(34(30,31)22-4-2-1-3-5-22)14-18-6-10-20(11-7-18)23-16-33-26-25-23/h1-13,16H,14-15,17H2,(H,28,29)

> <Ligand InChI Key>
JDZNBTGSUJDVRJ-UHFFFAOYSA-N

> <BindingDB MonomerID>
50376612

> <BindingDB Ligand Name>
CHEMBL261049

> <Target Name Assigned by Curator or DataSource>
Protein-tyrosine phosphatase 1B (PTP1B)

> <Target Source Organism According to Curator or DataSource>
Homo sapiens

> <IC50 (nM)>
115000

> <Curation/DataSource>
ChEMBL

> <Article DOI>
10.1016/j.bmcl.2008.03.007

> <PMID>
18372175

> <Authors>
Holmes, CP; Li, X; Pan, Y; Xu, C; Bhandari, A; Moody, CM; Miguel, JA; Ferla, SW; De Francisco, MN; Frederick, BT; Zhou, S; Macher, N; Jang, L; Irvine, JD; Grove, JR

> <Institution>
Affymax, Inc.

> <Link to Ligand in BindingDB>
http://www.bindingdb.org/bind/chemsearch/marvin/MolStructure.jsp?monomerid=50376612

> <Link to Ligand-Target Pair in BindingDB>
http://www.bindingdb.org/jsp/dbsearch/PrimarySearch_ki.jsp?energyterm=kJ/mole&tag=r21&monomerid=50376612&enzyme=Protein-tyrosine+phosphatase+1B+%28PTP1B%29&column=ki&startPg=0&Increment=50&submit=Search

> <PubChem CID>
44450252

> <PubChem SID>
160855695

> <ChEMBL ID of Ligand>
CHEMBL261049

> <ZINC ID of Ligand>
ZINC29051179

> <Number of Protein Chains in Target (>
1

> <BindingDB Target Chain Sequence>
MEMEKEFEQIDKSGSWAAIYQDIRHEASDFPCRVAKLPKNKNRNRYRDVSPFDHSRIKLHQEDNDYINASLIKMEEAQRSYILTQGPLPNTCGHFWEMVWEQKSRGVVMLNRVMEKGSLKCAQYWPQKEEKEMIFEDTNLKLTLISEDIKSYYTVRQLELENLTTQETREILHFHYTTWPDFGVPESPASFLNFLFKVRESGSLSPEHGPVVVHCSAGIGRSGTFCLADTCLLLMDKRKDPSSVDIKKVLLEMRKFRMGLIQTADQLRFSYLAVIEGAKFIMGDSSVQDQWKELSHEDLEPPPEHIPPPPRPPKRILEPHNGKCREFFPNHQWVKEETQEDKDCPIKEEKGSPLNAAPYGIESMSQDTEVRSRVVGGSLRGAQAASPAKGEPSLPEKDEDHALSYWKPFLVNMCVATVLTAGAYLCYRFLFNSNT

> <PDB ID(s) of Target Chain>
1BZJ,1G7G,1GFY,1JF7,1KAK,1KAV,1LQF,1NL9,1NNY,1NO6,1NZ7,1OEM,1OEO,1OES,1OET,1OEU,1OEV,1ONY,1ONZ,1PH0,1PXH,1PYN,1Q1M,1Q6J,1Q6M,1Q6N,1Q6P,1Q6S,1Q6T,1QXK,1SUG,1T48,1T49,1T4J,1WAX,1XBO,2AZR,2B07,2BGD,2BGE,2CM2,2CM3,2CM7,2CM8,2CMA,2CMB,2CMC,2CNE,2CNF,2CNG,2CNH,2CNI,2F6T,2F6V,2F6W,2F6Y,2F6Z,2F70,2F71,2FJN,2H4G,2H4K,2HB1,2HNP,2HNQ,2QBP,2QBQ,2QBR,2QBS,2VEU,2VEV,2VEW,2VEX,2VEY,2ZMM,2ZN7,3A5J,3CWE,3D9C,3EAX,3EB1,3EU0,3I7Z,3I80,3SME,4BJO,4I8N,4QBW,4Y14

> <UniProt (SwissProt) Recommended Name of Target Chain>
Tyrosine-protein phosphatase non-receptor type 1

> <UniProt (SwissProt) Entry Name of Target Chain>
PTN1_HUMAN

> <UniProt (SwissProt) Primary ID of Target Chain>
P18031

> <UniProt (SwissProt) Secondary ID(s) of Target Chain>
Q5TGD8,Q9BQV9,Q9NQQ4

$$$$

  SciTegic10241817252D

 24 25  0  0  0  0            999 V2000
    7.7527    1.6584    0.0000 C   0  0
    7.7516    0.8310    0.0000 C   0  0
    8.4664    0.4181    0.0000 C   0  0
    9.1828    0.8315    0.0000 C   0  0
    9.1800    1.6620    0.0000 C   0  0
    8.4646    2.0711    0.0000 C   0  0
    8.4621    2.8961    0.0000 S   0  0
    9.1754    3.3108    0.0000 O   0  0
    7.6583    2.6875    0.0000 O   0  0
    8.0417    3.6167    0.0000 O   0  0
    9.8929    2.0772    0.0000 S   0  0
   10.6089    1.6674    0.0000 O   0  0
    9.4750    2.7958    0.0000 O   0  0
   10.4750    2.6667    0.0000 O   0  0
    8.4662   -0.4069    0.0000 C   0  0
    7.0395    0.4158    0.0000 N   0  0
    6.2861    0.7519    0.0000 N   0  0
    5.7336    0.1392    0.0000 C   0  0
    6.1455   -0.5756    0.0000 C   0  0
    6.9526   -0.4046    0.0000 C   0  0
    4.9132    0.2261    0.0000 C   0  0
    4.5744    0.9790    0.0000 O   0  0
    4.4240   -0.4420    0.0000 O   0  0
    7.5653   -0.9571    0.0000 O   0  0
 11 12  1  0
  6  1  2  0
 11 13  2  0
  1  2  1  0
 11 14  2  0
  6  7  1  0
  3 15  1  0
 16 17  1  0
  3  4  1  0
  7  8  1  0
  7  9  2  0
  4  5  2  0
 17 18  1  0
 18 19  2  0
 19 20  1  0
 20 16  1  0
  2 16  1  0
  7 10  2  0
 18 21  1  0
  2  3  2  0
  5 11  1  0
 21 22  1  0
 21 23  2  0
  5  6  1  0
 20 24  2  0
M  END
> <From>
www.bindingDB.org

> <BindingDB Reactant_set_id>
50648740

> <Ligand InChI>
InChI=1S/C11H10N2O9S2/c1-5-2-8(23(17,18)19)9(24(20,21)22)4-7(5)13-10(14)3-6(12-13)11(15)16/h2-4,12H,1H3,(H,15,16)(H,17,18,19)(H,20,21,22)

> <Ligand InChI Key>
ORRKFRCSPYELFN-UHFFFAOYSA-N

> <BindingDB MonomerID>
50348092

> <BindingDB Ligand Name>
CHEMBL1800273

> <Target Name Assigned by Curator or DataSource>
Protein-tyrosine phosphatase 1B (PTP1B)

> <Target Source Organism According to Curator or DataSource>
Homo sapiens

> <IC50 (nM)>
118000

> <Curation/DataSource>
ChEMBL

> <Article DOI>
10.1016/j.bmcl.2011.05.078

> <PMID>
21669525

> <Authors>
Yu, ZH; Chen, L; Wu, L; Liu, S; Wang, L; Zhang, ZY

> <Institution>
Indiana University

> <Link to Ligand in BindingDB>
http://www.bindingdb.org/bind/chemsearch/marvin/MolStructure.jsp?monomerid=50348092

> <Link to Ligand-Target Pair in BindingDB>
http://www.bindingdb.org/jsp/dbsearch/PrimarySearch_ki.jsp?energyterm=kJ/mole&tag=r21&monomerid=50348092&enzyme=Protein-tyrosine+phosphatase+1B+%28PTP1B%29&column=ki&startPg=0&Increment=50&submit=Search

> <PubChem CID>
91932318

> <PubChem SID>
136354778

> <ChEMBL ID of Ligand>
CHEMBL1800273

> <ZINC ID of Ligand>
ZINC04016142

> <Number of Protein Chains in Target (>
1

> <BindingDB Target Chain Sequence>
MEMEKEFEQIDKSGSWAAIYQDIRHEASDFPCRVAKLPKNKNRNRYRDVSPFDHSRIKLHQEDNDYINASLIKMEEAQRSYILTQGPLPNTCGHFWEMVWEQKSRGVVMLNRVMEKGSLKCAQYWPQKEEKEMIFEDTNLKLTLISEDIKSYYTVRQLELENLTTQETREILHFHYTTWPDFGVPESPASFLNFLFKVRESGSLSPEHGPVVVHCSAGIGRSGTFCLADTCLLLMDKRKDPSSVDIKKVLLEMRKFRMGLIQTADQLRFSYLAVIEGAKFIMGDSSVQDQWKELSHEDLEPPPEHIPPPPRPPKRILEPHNGKCREFFPNHQWVKEETQEDKDCPIKEEKGSPLNAAPYGIESMSQDTEVRSRVVGGSLRGAQAASPAKGEPSLPEKDEDHALSYWKPFLVNMCVATVLTAGAYLCYRFLFNSNT

> <PDB ID(s) of Target Chain>
1BZJ,1G7G,1GFY,1JF7,1KAK,1KAV,1LQF,1NL9,1NNY,1NO6,1NZ7,1OEM,1OEO,1OES,1OET,1OEU,1OEV,1ONY,1ONZ,1PH0,1PXH,1PYN,1Q1M,1Q6J,1Q6M,1Q6N,1Q6P,1Q6S,1Q6T,1QXK,1SUG,1T48,1T49,1T4J,1WAX,1XBO,2AZR,2B07,2BGD,2BGE,2CM2,2CM3,2CM7,2CM8,2CMA,2CMB,2CMC,2CNE,2CNF,2CNG,2CNH,2CNI,2F6T,2F6V,2F6W,2F6Y,2F6Z,2F70,2F71,2FJN,2H4G,2H4K,2HB1,2HNP,2HNQ,2QBP,2QBQ,2QBR,2QBS,2VEU,2VEV,2VEW,2VEX,2VEY,2ZMM,2ZN7,3A5J,3CWE,3D9C,3EAX,3EB1,3EU0,3I7Z,3I80,3SME,4BJO,4I8N,4QBW,4Y14

> <UniProt (SwissProt) Recommended Name of Target Chain>
Tyrosine-protein phosphatase non-receptor type 1

> <UniProt (SwissProt) Entry Name of Target Chain>
PTN1_HUMAN

> <UniProt (SwissProt) Primary ID of Target Chain>
P18031

> <UniProt (SwissProt) Secondary ID(s) of Target Chain>
Q5TGD8,Q9BQV9,Q9NQQ4

$$$$

  SciTegic10241817252D

 29 32  0  0  0  0            999 V2000
    4.8856   -3.0170    0.0000 O   0  0
    4.8897   -3.8410    0.0000 S   0  0
    5.6012   -3.4254    0.0000 O   0  0
    3.6368   -3.1634    0.0000 C   0  0
    2.8102   -3.1826    0.0000 C   0  0
    2.4152   -3.9069    0.0000 C   0  0
    2.8458   -4.6126    0.0000 C   0  0
    3.6756   -4.5893    0.0000 C   0  0
    4.0669   -3.8644    0.0000 C   0  0
    1.5924   -3.9270    0.0000 C   0  0
    1.1634   -3.2232    0.0000 O   0  0
    1.1982   -4.6509    0.0000 O   0  0
    5.3229   -4.5442    0.0000 N   0  0
    4.9305   -5.2695    0.0000 C   0  0
    6.1466   -4.5210    0.0000 C   0  0
    4.1062   -5.2904    0.0000 C   0  0
    3.7138   -6.0147    0.0000 C   0  0
    5.3630   -5.9677    0.0000 C   0  0
    4.9744   -6.6926    0.0000 C   0  0
    4.1471   -6.7200    0.0000 C   0  0
    3.9175   -7.5152    0.0000 O   0  0
    5.2569   -7.4701    0.0000 C   0  0
    4.6043   -7.9808    0.0000 C   0  0
    4.7197   -8.7968    0.0000 C   0  0
    5.4867   -9.1085    0.0000 C   0  0
    6.1393   -8.5978    0.0000 C   0  0
    6.0248   -7.7754    0.0000 C   0  0
    6.5784   -5.2227    0.0000 C   0  0
    6.5384   -3.7961    0.0000 O   0  0
  3  2  2  0
 13 15  1  0
 14 16  2  0
  2  1  2  0
 16 17  1  0
 17 20  2  0
  6 10  1  0
 19 18  2  0
 18 14  1  0
 19 20  1  0
 13 14  1  0
  6  7  1  0
 10 11  2  0
 20 21  1  0
 21 23  1  0
 22 19  1  0
 22 23  2  0
 10 12  1  0
  7  8  2  0
  9  2  1  0
  5  6  2  0
  2 13  1  0
  8  9  1  0
 22 27  1  0
 23 24  1  0
 24 25  1  0
 25 26  1  0
 26 27  1  0
  9  4  2  0
 15 28  1  0
  4  5  1  0
 15 29  2  0
M  END
> <From>
www.bindingDB.org

> <BindingDB Reactant_set_id>
50648738

> <Ligand InChI>
InChI=1S/C21H19NO6S/c1-13(23)22(29(26,27)16-9-6-14(7-10-16)21(24)25)15-8-11-20-18(12-15)17-4-2-3-5-19(17)28-20/h6-12H,2-5H2,1H3,(H,24,25)

> <Ligand InChI Key>
DQUKVRXAZRFLKT-UHFFFAOYSA-N

> <BindingDB MonomerID>
50348090

> <BindingDB Ligand Name>
CHEMBL1800272

> <Target Name Assigned by Curator or DataSource>
Protein-tyrosine phosphatase 1B (PTP1B)

> <Target Source Organism According to Curator or DataSource>
Homo sapiens

> <IC50 (nM)>
120000

> <Curation/DataSource>
ChEMBL

> <Article DOI>
10.1016/j.bmcl.2011.05.078

> <PMID>
21669525

> <Authors>
Yu, ZH; Chen, L; Wu, L; Liu, S; Wang, L; Zhang, ZY

> <Institution>
Indiana University

> <Link to Ligand in BindingDB>
http://www.bindingdb.org/bind/chemsearch/marvin/MolStructure.jsp?monomerid=50348090

> <Link to Ligand-Target Pair in BindingDB>
http://www.bindingdb.org/jsp/dbsearch/PrimarySearch_ki.jsp?energyterm=kJ/mole&tag=r21&monomerid=50348090&enzyme=Protein-tyrosine+phosphatase+1B+%28PTP1B%29&column=ki&startPg=0&Increment=50&submit=Search

> <PubChem CID>
2964738

> <PubChem SID>
136354776

> <ChEMBL ID of Ligand>
CHEMBL1800272

> <ZINC ID of Ligand>
ZINC05047504

> <Number of Protein Chains in Target (>
1

> <BindingDB Target Chain Sequence>
MEMEKEFEQIDKSGSWAAIYQDIRHEASDFPCRVAKLPKNKNRNRYRDVSPFDHSRIKLHQEDNDYINASLIKMEEAQRSYILTQGPLPNTCGHFWEMVWEQKSRGVVMLNRVMEKGSLKCAQYWPQKEEKEMIFEDTNLKLTLISEDIKSYYTVRQLELENLTTQETREILHFHYTTWPDFGVPESPASFLNFLFKVRESGSLSPEHGPVVVHCSAGIGRSGTFCLADTCLLLMDKRKDPSSVDIKKVLLEMRKFRMGLIQTADQLRFSYLAVIEGAKFIMGDSSVQDQWKELSHEDLEPPPEHIPPPPRPPKRILEPHNGKCREFFPNHQWVKEETQEDKDCPIKEEKGSPLNAAPYGIESMSQDTEVRSRVVGGSLRGAQAASPAKGEPSLPEKDEDHALSYWKPFLVNMCVATVLTAGAYLCYRFLFNSNT

> <PDB ID(s) of Target Chain>
1BZJ,1G7G,1GFY,1JF7,1KAK,1KAV,1LQF,1NL9,1NNY,1NO6,1NZ7,1OEM,1OEO,1OES,1OET,1OEU,1OEV,1ONY,1ONZ,1PH0,1PXH,1PYN,1Q1M,1Q6J,1Q6M,1Q6N,1Q6P,1Q6S,1Q6T,1QXK,1SUG,1T48,1T49,1T4J,1WAX,1XBO,2AZR,2B07,2BGD,2BGE,2CM2,2CM3,2CM7,2CM8,2CMA,2CMB,2CMC,2CNE,2CNF,2CNG,2CNH,2CNI,2F6T,2F6V,2F6W,2F6Y,2F6Z,2F70,2F71,2FJN,2H4G,2H4K,2HB1,2HNP,2HNQ,2QBP,2QBQ,2QBR,2QBS,2VEU,2VEV,2VEW,2VEX,2VEY,2ZMM,2ZN7,3A5J,3CWE,3D9C,3EAX,3EB1,3EU0,3I7Z,3I80,3SME,4BJO,4I8N,4QBW,4Y14

> <UniProt (SwissProt) Recommended Name of Target Chain>
Tyrosine-protein phosphatase non-receptor type 1

> <UniProt (SwissProt) Entry Name of Target Chain>
PTN1_HUMAN

> <UniProt (SwissProt) Primary ID of Target Chain>
P18031

> <UniProt (SwissProt) Secondary ID(s) of Target Chain>
Q5TGD8,Q9BQV9,Q9NQQ4

$$$$

  SciTegic10241817252D

 34 37  0  0  0  0            999 V2000
   11.1682   -8.0127    0.0000 C   0  0
   11.1670   -8.8397    0.0000 C   0  0
   11.8814   -9.2524    0.0000 C   0  0
   12.5976   -8.8392    0.0000 C   0  0
   12.5947   -8.0091    0.0000 C   0  0
   11.8796   -7.6002    0.0000 C   0  0
   13.3072   -7.5941    0.0000 C   0  0
   13.3041   -6.7695    0.0000 N   0  0
   14.0167   -6.3545    0.0000 C   0  0
   12.5885   -6.3599    0.0000 S   0  0
   11.8692   -5.9471    0.0000 C   0  0
   12.1785   -7.0754    0.0000 O   0  0
   13.0026   -5.6469    0.0000 O   0  0
   11.8699   -5.1167    0.0000 C   0  0
   11.1515   -4.7040    0.0000 C   0  0
   10.4334   -5.1205    0.0000 C   0  0
   10.4382   -5.9541    0.0000 C   0  0
   11.1572   -6.3631    0.0000 C   0  0
   10.4525   -9.2514    0.0000 C   0  0
    9.6980   -8.9169    0.0000 C   0  0
    9.1457   -9.5293    0.0000 S   0  0
    9.5575  -10.2438    0.0000 N   0  0
   10.3642  -10.0728    0.0000 N   0  0
   14.7323   -6.7641    0.0000 C   0  0
   14.7306   -7.5891    0.0000 C   0  0
   15.4455   -7.9986    0.0000 C   0  0
   16.1590   -7.5835    0.0000 C   0  0
   16.1532   -6.7547    0.0000 C   0  0
   15.4379   -6.3489    0.0000 C   0  0
   16.8750   -7.9922    0.0000 C   0  0
   16.8731   -8.8148    0.0000 P   0  0
   16.8710   -9.6377    0.0000 O   0  0
   17.6977   -8.8168    0.0000 O   0  0
   16.0485   -8.8126    0.0000 O   0  0
 16 17  2  0
 17 18  1  0
 18 11  2  0
  8  9  1  0
  2 19  1  0
 19 20  2  0
  4  5  2  0
  8 10  1  0
  2  3  2  0
 10 11  1  0
 20 21  1  0
 21 22  1  0
 22 23  2  0
 23 19  1  0
  5  6  1  0
  9 24  1  0
 10 12  2  0
 24 25  2  0
  6  1  2  0
 25 26  1  0
 10 13  2  0
 26 27  2  0
  1  2  1  0
 27 28  1  0
 11 14  1  0
 28 29  2  0
 29 24  1  0
  5  7  1  0
 27 30  1  0
 14 15  2  0
 30 31  1  0
  3  4  1  0
 31 32  2  0
 15 16  1  0
 31 33  1  0
  7  8  1  0
 31 34  1  0
M  END
> <From>
www.bindingDB.org

> <BindingDB Reactant_set_id>
50867341

> <Ligand InChI>
InChI=1S/C23H22N3O5PS2/c27-32(28,29)16-20-8-6-18(7-9-20)14-26(34(30,31)22-4-2-1-3-5-22)15-19-10-12-21(13-11-19)23-17-33-25-24-23/h1-13,17H,14-16H2,(H2,27,28,29)

> <Ligand InChI Key>
GRXUBGNQPYLDOJ-UHFFFAOYSA-N

> <BindingDB MonomerID>
50376626

> <BindingDB Ligand Name>
CHEMBL409829

> <Target Name Assigned by Curator or DataSource>
Protein-tyrosine phosphatase 1B (PTP1B)

> <Target Source Organism According to Curator or DataSource>
Homo sapiens

> <IC50 (nM)>
123000

> <Curation/DataSource>
ChEMBL

> <Article DOI>
10.1016/j.bmcl.2008.03.007

> <PMID>
18372175

> <Authors>
Holmes, CP; Li, X; Pan, Y; Xu, C; Bhandari, A; Moody, CM; Miguel, JA; Ferla, SW; De Francisco, MN; Frederick, BT; Zhou, S; Macher, N; Jang, L; Irvine, JD; Grove, JR

> <Institution>
Affymax, Inc.

> <Link to Ligand in BindingDB>
http://www.bindingdb.org/bind/chemsearch/marvin/MolStructure.jsp?monomerid=50376626

> <Link to Ligand-Target Pair in BindingDB>
http://www.bindingdb.org/jsp/dbsearch/PrimarySearch_ki.jsp?energyterm=kJ/mole&tag=r21&monomerid=50376626&enzyme=Protein-tyrosine+phosphatase+1B+%28PTP1B%29&column=ki&startPg=0&Increment=50&submit=Search

> <PubChem CID>
44450333

> <PubChem SID>
160855709

> <ChEMBL ID of Ligand>
CHEMBL409829

> <ZINC ID of Ligand>
ZINC29051966

> <Number of Protein Chains in Target (>
1

> <BindingDB Target Chain Sequence>
MEMEKEFEQIDKSGSWAAIYQDIRHEASDFPCRVAKLPKNKNRNRYRDVSPFDHSRIKLHQEDNDYINASLIKMEEAQRSYILTQGPLPNTCGHFWEMVWEQKSRGVVMLNRVMEKGSLKCAQYWPQKEEKEMIFEDTNLKLTLISEDIKSYYTVRQLELENLTTQETREILHFHYTTWPDFGVPESPASFLNFLFKVRESGSLSPEHGPVVVHCSAGIGRSGTFCLADTCLLLMDKRKDPSSVDIKKVLLEMRKFRMGLIQTADQLRFSYLAVIEGAKFIMGDSSVQDQWKELSHEDLEPPPEHIPPPPRPPKRILEPHNGKCREFFPNHQWVKEETQEDKDCPIKEEKGSPLNAAPYGIESMSQDTEVRSRVVGGSLRGAQAASPAKGEPSLPEKDEDHALSYWKPFLVNMCVATVLTAGAYLCYRFLFNSNT

> <PDB ID(s) of Target Chain>
1BZJ,1G7G,1GFY,1JF7,1KAK,1KAV,1LQF,1NL9,1NNY,1NO6,1NZ7,1OEM,1OEO,1OES,1OET,1OEU,1OEV,1ONY,1ONZ,1PH0,1PXH,1PYN,1Q1M,1Q6J,1Q6M,1Q6N,1Q6P,1Q6S,1Q6T,1QXK,1SUG,1T48,1T49,1T4J,1WAX,1XBO,2AZR,2B07,2BGD,2BGE,2CM2,2CM3,2CM7,2CM8,2CMA,2CMB,2CMC,2CNE,2CNF,2CNG,2CNH,2CNI,2F6T,2F6V,2F6W,2F6Y,2F6Z,2F70,2F71,2FJN,2H4G,2H4K,2HB1,2HNP,2HNQ,2QBP,2QBQ,2QBR,2QBS,2VEU,2VEV,2VEW,2VEX,2VEY,2ZMM,2ZN7,3A5J,3CWE,3D9C,3EAX,3EB1,3EU0,3I7Z,3I80,3SME,4BJO,4I8N,4QBW,4Y14

> <UniProt (SwissProt) Recommended Name of Target Chain>
Tyrosine-protein phosphatase non-receptor type 1

> <UniProt (SwissProt) Entry Name of Target Chain>
PTN1_HUMAN

> <UniProt (SwissProt) Primary ID of Target Chain>
P18031

> <UniProt (SwissProt) Secondary ID(s) of Target Chain>
Q5TGD8,Q9BQV9,Q9NQQ4

$$$$

  SciTegic10241817252D

 41 43  0  0  0  0            999 V2000
   22.5532  -10.5283    0.0000 Si  0  0
   22.8061  -11.3170    0.0000 C   0  0
   23.3385  -10.2758    0.0000 C   0  0
   21.7632  -10.7837    0.0000 C   0  0
   17.9764   -6.7469    0.0000 C   0  0
   17.9752   -7.5687    0.0000 C   0  0
   18.6930   -7.9809    0.0000 C   0  0
   18.6912   -6.3347    0.0000 C   0  0
   19.4012   -6.7433    0.0000 C   0  0
   19.4015   -7.5683    0.0000 C   0  0
   20.1862   -7.8230    0.0000 N   0  0
   20.6669   -7.1595    0.0000 C   0  0
   20.1858   -6.4923    0.0000 C   0  0
   20.4368   -8.6104    0.0000 C   0  0
   20.4361   -5.7028    0.0000 C   0  0  3  0  0  0
   20.6899   -4.9167    0.0000 O   0  0
   19.6528   -5.4509    0.0000 C   0  0
   21.2242   -5.9578    0.0000 C   0  0
   21.3998   -6.7610    0.0000 O   0  0
   21.8346   -5.4063    0.0000 O   0  0
   18.8638   -5.1954    0.0000 F   0  0
   19.3984   -6.2369    0.0000 F   0  0
   19.9079   -4.6636    0.0000 F   0  0
   17.2552   -6.3344    0.0000 O   0  0
   16.5457   -6.7495    0.0000 C   0  0
   15.8245   -6.3411    0.0000 C   0  0
   15.1109   -6.7605    0.0000 O   0  0
   14.3897   -6.3522    0.0000 C   0  0
   14.3867   -5.5321    0.0000 C   0  0
   13.6747   -5.1196    0.0000 C   0  0
   12.9475   -5.5391    0.0000 C   0  0
   12.9535   -6.3670    0.0000 C   0  0
   13.6744   -6.7757    0.0000 C   0  0
   12.2370   -6.7847    0.0000 O   0  0
   13.6733   -7.5990    0.0000 C   0  0
   12.9654   -8.0087    0.0000 O   0  0
   14.3920   -8.0087    0.0000 O   0  0
   12.2468   -7.5990    0.0000 C   0  0
   21.2414   -8.7823    0.0000 O   0  0
   21.4953   -9.5672    0.0000 C   0  0
   22.2965   -9.7436    0.0000 C   0  0
  5  6  2  0
 17 21  1  0
  1  2  1  0
 17 22  1  0
  6  7  1  0
 17 23  1  0
 10 11  1  0
  5 24  1  0
 11 12  1  0
 24 25  1  0
 12 13  2  0
 25 26  1  0
 13  9  1  0
 26 27  1  0
  7 10  2  0
 27 28  1  0
 11 14  1  0
 28 29  2  0
  1  4  1  0
 29 30  1  0
 13 15  1  0
 30 31  2  0
  9  8  2  0
 31 32  1  0
 15 16  1  4
 32 33  2  0
 33 28  1  0
  8  5  1  0
 32 34  1  0
 15 17  1  0
  9 10  1  0
 15 18  1  0
 35 36  1  0
 35 37  2  0
 33 35  1  0
 36 38  1  0
  1  3  1  0
 14 39  1  0
 18 19  1  0
 39 40  1  0
 18 20  2  0
 40 41  1  0
 41  1  1  0
M  END
> <From>
www.bindingDB.org

> <BindingDB Reactant_set_id>
50403326

> <Ligand InChI>
InChI=1S/C27H32F3NO9Si/c1-37-24(33)23-21(32)6-5-7-22(23)40-11-10-39-17-8-9-20-18(14-17)19(26(36,25(34)35)27(28,29)30)15-31(20)16-38-12-13-41(2,3)4/h5-9,14-15,32,36H,10-13,16H2,1-4H3,(H,34,35)

> <Ligand InChI Key>
DPDZJLPNAAJJNG-UHFFFAOYSA-N

> <BindingDB MonomerID>
50224540

> <BindingDB Ligand Name>
3,3,3-trifluoro-2-hydroxy-2-(5-(2-(3-hydroxy-2-(methoxycarbonyl)phenoxy)ethoxy)-1-((2-(trimethylsilyl)ethoxy)methyl)-1H-indol-3-yl)propanoic acid::CHEMBL250567

> <Target Name Assigned by Curator or DataSource>
Protein-tyrosine phosphatase 1B (PTP1B)

> <Target Source Organism According to Curator or DataSource>
Homo sapiens

> <IC50 (nM)>
123000

> <Curation/DataSource>
ChEMBL

> <Article DOI>
10.1016/j.bmcl.2007.09.069

> <PMID>
17931864

> <Authors>
Adams, DR; Abraham, A; Asano, J; Breslin, C; Dick, CA; Ixkes, U; Johnston, BF; Johnston, D; Kewnay, J; Mackay, SP; MacKenzie, SJ; McFarlane, M; Mitchell, L; Spinks, D; Takano, Y

> <Institution>
Heriot-Watt University

> <Link to Ligand in BindingDB>
http://www.bindingdb.org/bind/chemsearch/marvin/MolStructure.jsp?monomerid=50224540

> <Link to Ligand-Target Pair in BindingDB>
http://www.bindingdb.org/jsp/dbsearch/PrimarySearch_ki.jsp?energyterm=kJ/mole&tag=r21&monomerid=50224540&enzyme=Protein-tyrosine+phosphatase+1B+%28PTP1B%29&column=ki&startPg=0&Increment=50&submit=Search

> <PubChem CID>
44444623

> <PubChem SID>
104096148

> <ChEMBL ID of Ligand>
CHEMBL250567

> <Number of Protein Chains in Target (>
1

> <BindingDB Target Chain Sequence>
MEMEKEFEQIDKSGSWAAIYQDIRHEASDFPCRVAKLPKNKNRNRYRDVSPFDHSRIKLHQEDNDYINASLIKMEEAQRSYILTQGPLPNTCGHFWEMVWEQKSRGVVMLNRVMEKGSLKCAQYWPQKEEKEMIFEDTNLKLTLISEDIKSYYTVRQLELENLTTQETREILHFHYTTWPDFGVPESPASFLNFLFKVRESGSLSPEHGPVVVHCSAGIGRSGTFCLADTCLLLMDKRKDPSSVDIKKVLLEMRKFRMGLIQTADQLRFSYLAVIEGAKFIMGDSSVQDQWKELSHEDLEPPPEHIPPPPRPPKRILEPHNGKCREFFPNHQWVKEETQEDKDCPIKEEKGSPLNAAPYGIESMSQDTEVRSRVVGGSLRGAQAASPAKGEPSLPEKDEDHALSYWKPFLVNMCVATVLTAGAYLCYRFLFNSNT

> <PDB ID(s) of Target Chain>
1BZJ,1G7G,1GFY,1JF7,1KAK,1KAV,1LQF,1NL9,1NNY,1NO6,1NZ7,1OEM,1OEO,1OES,1OET,1OEU,1OEV,1ONY,1ONZ,1PH0,1PXH,1PYN,1Q1M,1Q6J,1Q6M,1Q6N,1Q6P,1Q6S,1Q6T,1QXK,1SUG,1T48,1T49,1T4J,1WAX,1XBO,2AZR,2B07,2BGD,2BGE,2CM2,2CM3,2CM7,2CM8,2CMA,2CMB,2CMC,2CNE,2CNF,2CNG,2CNH,2CNI,2F6T,2F6V,2F6W,2F6Y,2F6Z,2F70,2F71,2FJN,2H4G,2H4K,2HB1,2HNP,2HNQ,2QBP,2QBQ,2QBR,2QBS,2VEU,2VEV,2VEW,2VEX,2VEY,2ZMM,2ZN7,3A5J,3CWE,3D9C,3EAX,3EB1,3EU0,3I7Z,3I80,3SME,4BJO,4I8N,4QBW,4Y14

> <UniProt (SwissProt) Recommended Name of Target Chain>
Tyrosine-protein phosphatase non-receptor type 1

> <UniProt (SwissProt) Entry Name of Target Chain>
PTN1_HUMAN

> <UniProt (SwissProt) Primary ID of Target Chain>
P18031

> <UniProt (SwissProt) Secondary ID(s) of Target Chain>
Q5TGD8,Q9BQV9,Q9NQQ4

$$$$
 
  SciTegic10241817252D

 23 25  0  0  0  0            999 V2000
   12.4611   -1.8250    0.0000 C   0  0
   12.4599   -2.6523    0.0000 C   0  0
   13.1747   -3.0652    0.0000 C   0  0
   13.8912   -2.6519    0.0000 C   0  0
   13.8883   -1.8213    0.0000 C   0  0
   13.1729   -1.4122    0.0000 C   0  0
   14.6012   -1.4061    0.0000 C   0  0
   15.3172   -1.8159    0.0000 C   0  0
   14.5981   -0.5811    0.0000 O   0  0
   16.0302   -1.4008    0.0000 C   0  0
   16.7462   -1.8106    0.0000 C   0  0
   16.7462   -2.6344    0.0000 C   0  0
   17.4613   -3.0441    0.0000 C   0  0
   17.4537   -1.3937    0.0000 C   0  0
   18.1676   -1.8000    0.0000 C   0  0
   18.1724   -2.6273    0.0000 C   0  0
   18.8902   -3.0351    0.0000 C   0  0
   19.6037   -2.6165    0.0000 C   0  0
   19.5948   -1.7860    0.0000 C   0  0
   18.8765   -1.3821    0.0000 C   0  0
   11.7465   -1.4126    0.0000 O   0  0
   11.7463   -0.5876    0.0000 C   0  0
   11.7451   -3.0643    0.0000 O   0  0
  5  6  1  0
 11 12  2  0
  6  1  2  0
 12 13  1  0
 13 16  2  0
 14 11  1  0
  1  2  1  0
 14 15  2  0
  5  7  1  0
  3  4  1  0
 15 16  1  0
  7  8  1  0
 16 17  1  0
 17 18  2  0
  7  9  2  0
 18 19  1  0
  4  5  2  0
 19 20  2  0
 20 15  1  0
  8 10  2  0
  1 21  1  0
  2  3  2  0
 21 22  1  0
 10 11  1  0
  2 23  1  0
M  END
> <Name>
 

> <From>
www.bindingDB.org

> <BindingDB Reactant_set_id>
50913905

> <Ligand InChI>
InChI=1S/C20H16O3/c1-23-20-13-17(9-11-19(20)22)18(21)10-7-14-6-8-15-4-2-3-5-16(15)12-14/h2-13,22H,1H3/b10-7+

> <Ligand InChI Key>
OAGVNDJNFSRJHP-JXMROGBWSA-N

> <BindingDB MonomerID>
50320828

> <BindingDB Ligand Name>
(2E)-1-(3'-Methoxy-4'-hydroxyphenyl)-3-(2-naphtyl)-2-propen-1-one::1-(3'-methoxy-4'-hydroxyphenyl)-3-(2-naphthyl)-2-propen-1-one::CHEMBL484145

> <Target Name Assigned by Curator or DataSource>
Protein-tyrosine phosphatase 1B (PTP1B)

> <Target Source Organism According to Curator or DataSource>
Homo sapiens

> <IC50 (nM)>
123030

> <Curation/DataSource>
ChEMBL

> <Article DOI>
10.1016/j.bmc.2010.04.051

> <PMID>
20462762

> <Authors>
Mascarello, A; Chiaradia, LD; Vernal, J; Villarino, A; Guido, RV; Perizzolo, P; Poirier, V; Wong, D; Martins, PG; Nunes, RJ; Yunes, RA; Andricopulo, AD; Av-Gay, Y; Terenzi, H

> <Institution>
Universidade Federal de Santa Catarina

> <Link to Ligand in BindingDB>
http://www.bindingdb.org/bind/chemsearch/marvin/MolStructure.jsp?monomerid=50320828

> <Link to Ligand-Target Pair in BindingDB>
http://www.bindingdb.org/jsp/dbsearch/PrimarySearch_ki.jsp?energyterm=kJ/mole&tag=r21&monomerid=50320828&enzyme=Protein-tyrosine+phosphatase+1B+%28PTP1B%29&column=ki&startPg=0&Increment=50&submit=Search

> <PubChem CID>
9448597

> <PubChem SID>
104142357

> <ChEMBL ID of Ligand>
CHEMBL484145

> <ZINC ID of Ligand>
ZINC08322763

> <Number of Protein Chains in Target (>
1

> <BindingDB Target Chain Sequence>
MEMEKEFEQIDKSGSWAAIYQDIRHEASDFPCRVAKLPKNKNRNRYRDVSPFDHSRIKLHQEDNDYINASLIKMEEAQRSYILTQGPLPNTCGHFWEMVWEQKSRGVVMLNRVMEKGSLKCAQYWPQKEEKEMIFEDTNLKLTLISEDIKSYYTVRQLELENLTTQETREILHFHYTTWPDFGVPESPASFLNFLFKVRESGSLSPEHGPVVVHCSAGIGRSGTFCLADTCLLLMDKRKDPSSVDIKKVLLEMRKFRMGLIQTADQLRFSYLAVIEGAKFIMGDSSVQDQWKELSHEDLEPPPEHIPPPPRPPKRILEPHNGKCREFFPNHQWVKEETQEDKDCPIKEEKGSPLNAAPYGIESMSQDTEVRSRVVGGSLRGAQAASPAKGEPSLPEKDEDHALSYWKPFLVNMCVATVLTAGAYLCYRFLFNSNT

> <PDB ID(s) of Target Chain>
1BZJ,1G7G,1GFY,1JF7,1KAK,1KAV,1LQF,1NL9,1NNY,1NO6,1NZ7,1OEM,1OEO,1OES,1OET,1OEU,1OEV,1ONY,1ONZ,1PH0,1PXH,1PYN,1Q1M,1Q6J,1Q6M,1Q6N,1Q6P,1Q6S,1Q6T,1QXK,1SUG,1T48,1T49,1T4J,1WAX,1XBO,2AZR,2B07,2BGD,2BGE,2CM2,2CM3,2CM7,2CM8,2CMA,2CMB,2CMC,2CNE,2CNF,2CNG,2CNH,2CNI,2F6T,2F6V,2F6W,2F6Y,2F6Z,2F70,2F71,2FJN,2H4G,2H4K,2HB1,2HNP,2HNQ,2QBP,2QBQ,2QBR,2QBS,2VEU,2VEV,2VEW,2VEX,2VEY,2ZMM,2ZN7,3A5J,3CWE,3D9C,3EAX,3EB1,3EU0,3I7Z,3I80,3SME,4BJO,4I8N,4QBW,4Y14

> <UniProt (SwissProt) Recommended Name of Target Chain>
Tyrosine-protein phosphatase non-receptor type 1

> <UniProt (SwissProt) Entry Name of Target Chain>
PTN1_HUMAN

> <UniProt (SwissProt) Primary ID of Target Chain>
P18031

> <UniProt (SwissProt) Secondary ID(s) of Target Chain>
Q5TGD8,Q9BQV9,Q9NQQ4

$$$$
 
  SciTegic10241817252D

 28 30  0  0  0  0            999 V2000
    7.1734  -17.2126    0.0000 C   0  0
    7.5874  -17.9311    0.0000 C   0  0
    8.4123  -17.9311    0.0000 C   0  0
    8.8246  -17.2156    0.0000 C   0  0
    8.4101  -16.5004    0.0000 C   0  0
    7.5859  -16.5004    0.0000 C   0  0
    9.6533  -17.2156    0.0000 C   0  0
   10.0648  -16.5013    0.0000 C   0  0
   10.8908  -16.5013    0.0000 C   0  0
   11.3019  -17.2147    0.0000 C   0  0
   12.1241  -17.2147    0.0000 C   0  0
   12.5368  -16.5026    0.0000 C   0  0
   12.1216  -15.7862    0.0000 C   0  0
   11.2958  -15.7862    0.0000 C   0  0
   12.5370  -17.9313    0.0000 C   0  0
   13.3616  -17.9313    0.0000 O   0  0
    6.3484  -17.2117    0.0000 O   0  0
    7.1746  -18.6454    0.0000 C   0  0
    6.3496  -18.6450    0.0000 O   0  0
    7.5868  -19.3600    0.0000 O   0  0
    7.1730  -15.7879    0.0000 C   0  0
    7.5877  -15.0734    0.0000 C   0  0
    7.1764  -14.3592    0.0000 C   0  0
    6.3505  -14.3582    0.0000 C   0  0
    5.9376  -15.0774    0.0000 C   0  0
    6.3513  -15.7887    0.0000 C   0  0
   12.1208  -18.6490    0.0000 O   0  0
   13.3624  -16.5049    0.0000 O   0  0
 11 12  1  0
 12 13  2  0
 13 14  1  0
 14  9  2  0
 11 15  1  0
 15 16  2  0
  1 17  1  0
  1  2  2  0
  2 18  1  0
  2  3  1  0
 18 19  2  0
  3  4  2  0
 18 20  1  0
  4  5  1  0
  5  6  2  0
 21 22  2  0
  6  1  1  0
 22 23  1  0
  4  7  1  0
 23 24  2  0
  7  8  2  0
 24 25  1  0
  8  9  1  0
 25 26  2  0
 26 21  1  0
  6 21  1  0
  9 10  1  0
 10 11  2  0
 15 27  1  0
 12 28  1  0
M  END
> <Name>
 

> <From>
www.bindingDB.org

> <BindingDB Reactant_set_id>
50428968

> <Ligand InChI>
InChI=1S/C22H16O6/c23-19-9-8-13(10-17(19)21(25)26)6-7-14-11-16(15-4-2-1-3-5-15)20(24)18(12-14)22(27)28/h1-12,23-24H,(H,25,26)(H,27,28)/b7-6+

> <Ligand InChI Key>
XTSOOHZPPRPYLZ-VOTSOKGWSA-N

> <BindingDB MonomerID>
50246981

> <BindingDB Ligand Name>
5-[(E)-2-(3-Carboxy-4-hydroxyphenyl)vinyl]-2-hydrox ybiphenyl-3-carboxylic acid::CHEMBL455693

> <Target Name Assigned by Curator or DataSource>
Protein-tyrosine phosphatase 1B (PTP1B)

> <Target Source Organism According to Curator or DataSource>
Homo sapiens

> <IC50 (nM)>
125000

> <Curation/DataSource>
ChEMBL

> <Article DOI>
10.1016/j.bmc.2008.07.090

> <PMID>
18722777

> <Authors>
Shrestha, S; Bhattarai, BR; Kafle, B; Lee, KH; Cho, H

> <Institution>
Inha University

> <Link to Ligand in BindingDB>
http://www.bindingdb.org/bind/chemsearch/marvin/MolStructure.jsp?monomerid=50246981

> <Link to Ligand-Target Pair in BindingDB>
http://www.bindingdb.org/jsp/dbsearch/PrimarySearch_ki.jsp?energyterm=kJ/mole&tag=r21&monomerid=50246981&enzyme=Protein-tyrosine+phosphatase+1B+%28PTP1B%29&column=ki&startPg=0&Increment=50&submit=Search

> <PubChem CID>
44563618

> <PubChem SID>
104102171

> <ChEMBL ID of Ligand>
CHEMBL455693

> <ZINC ID of Ligand>
ZINC40848357

> <Number of Protein Chains in Target (>
1

> <BindingDB Target Chain Sequence>
MEMEKEFEQIDKSGSWAAIYQDIRHEASDFPCRVAKLPKNKNRNRYRDVSPFDHSRIKLHQEDNDYINASLIKMEEAQRSYILTQGPLPNTCGHFWEMVWEQKSRGVVMLNRVMEKGSLKCAQYWPQKEEKEMIFEDTNLKLTLISEDIKSYYTVRQLELENLTTQETREILHFHYTTWPDFGVPESPASFLNFLFKVRESGSLSPEHGPVVVHCSAGIGRSGTFCLADTCLLLMDKRKDPSSVDIKKVLLEMRKFRMGLIQTADQLRFSYLAVIEGAKFIMGDSSVQDQWKELSHEDLEPPPEHIPPPPRPPKRILEPHNGKCREFFPNHQWVKEETQEDKDCPIKEEKGSPLNAAPYGIESMSQDTEVRSRVVGGSLRGAQAASPAKGEPSLPEKDEDHALSYWKPFLVNMCVATVLTAGAYLCYRFLFNSNT

> <PDB ID(s) of Target Chain>
1BZJ,1G7G,1GFY,1JF7,1KAK,1KAV,1LQF,1NL9,1NNY,1NO6,1NZ7,1OEM,1OEO,1OES,1OET,1OEU,1OEV,1ONY,1ONZ,1PH0,1PXH,1PYN,1Q1M,1Q6J,1Q6M,1Q6N,1Q6P,1Q6S,1Q6T,1QXK,1SUG,1T48,1T49,1T4J,1WAX,1XBO,2AZR,2B07,2BGD,2BGE,2CM2,2CM3,2CM7,2CM8,2CMA,2CMB,2CMC,2CNE,2CNF,2CNG,2CNH,2CNI,2F6T,2F6V,2F6W,2F6Y,2F6Z,2F70,2F71,2FJN,2H4G,2H4K,2HB1,2HNP,2HNQ,2QBP,2QBQ,2QBR,2QBS,2VEU,2VEV,2VEW,2VEX,2VEY,2ZMM,2ZN7,3A5J,3CWE,3D9C,3EAX,3EB1,3EU0,3I7Z,3I80,3SME,4BJO,4I8N,4QBW,4Y14

> <UniProt (SwissProt) Recommended Name of Target Chain>
Tyrosine-protein phosphatase non-receptor type 1

> <UniProt (SwissProt) Entry Name of Target Chain>
PTN1_HUMAN

> <UniProt (SwissProt) Primary ID of Target Chain>
P18031

> <UniProt (SwissProt) Secondary ID(s) of Target Chain>
Q5TGD8,Q9BQV9,Q9NQQ4

$$$$

  SciTegic10241817252D

 20 22  0  0  0  0            999 V2000
    2.0291    0.9793    0.0000 S   0  0
    1.9088    0.1618    0.0000 N   0  0
    2.8383    1.1162    0.0000 N   0  0
    3.2159    0.3984    0.0000 C   0  0
    2.6515   -0.1992    0.0000 C   0  0
    1.1951   -0.2490    0.0000 C   0  0
    1.9337    1.8009    0.0000 O   0  0
    1.2117    1.1037    0.0000 O   0  0
    0.4772    0.1618    0.0000 C   0  0
   -0.2323   -0.2490    0.0000 C   0  0
    4.0375    0.2988    0.0000 O   0  0
   -0.9419    0.1576    0.0000 C   0  0
    1.1951   -1.0748    0.0000 C   0  0
   -0.2323   -1.0748    0.0000 C   0  0
    0.4772   -1.4856    0.0000 C   0  0
   -0.9419    0.9834    0.0000 C   0  0
   -1.6432   -0.2490    0.0000 C   0  0
   -2.3610    0.1576    0.0000 C   0  0
   -1.6515    1.3942    0.0000 C   0  0
   -2.3610    0.9834    0.0000 C   0  0
  2  1  1  0
  3  1  1  0
  4  3  1  0
  5  2  1  0
  6  2  1  0
  7  1  2  0
  8  1  2  0
  9  6  2  0
 10  9  1  0
 11  4  2  0
 12 10  1  0
 13  6  1  0
 14 15  1  0
 15 13  2  0
 16 12  2  0
 17 12  1  0
 18 17  2  0
 19 16  1  0
 20 18  1  0
  5  4  1  0
 10 14  2  0
 19 20  2  0
M  END
> <From>
www.bindingDB.org

> <BindingDB Reactant_set_id>
50307171

> <Ligand InChI>
InChI=1S/C14H12N2O3S/c17-14-10-16(20(18,19)15-14)13-8-4-7-12(9-13)11-5-2-1-3-6-11/h1-9H,10H2,(H,15,17)

> <Ligand InChI Key>
DSQVFMWKEDOHMM-UHFFFAOYSA-N

> <BindingDB MonomerID>
50166432

> <BindingDB Ligand Name>
5-Biphenyl-3-yl-1,1-dioxo-1lambda*6*-[1,2,5]thiadiazolidin-3-one::CHEMBL191219

> <Target Name Assigned by Curator or DataSource>
Protein-tyrosine phosphatase 1B

> <Target Source Organism According to Curator or DataSource>
Homo sapiens

> <IC50 (nM)>
132000

> <Curation/DataSource>
ChEMBL

> <Article DOI>
10.1016/j.bmcl.2005.03.068

> <PMID>
15863305

> <Authors>
Black, E; Breed, J; Breeze, AL; Embrey, K; Garcia, R; Gero, TW; Godfrey, L; Kenny, PW; Morley, AD; Minshull, CA; Pannifer, AD; Read, J; Rees, A; Russell, DJ; Toader, D; Tucker, J

> <Institution>
AstraZeneca

> <Link to Ligand in BindingDB>
http://www.bindingdb.org/bind/chemsearch/marvin/MolStructure.jsp?monomerid=50166432

> <Link to Ligand-Target Pair in BindingDB>
http://www.bindingdb.org/jsp/dbsearch/PrimarySearch_ki.jsp?energyterm=kJ/mole&tag=r21&monomerid=50166432&enzyme=Protein-tyrosine+phosphatase+1B&column=ki&startPg=0&Increment=50&submit=Search

> <PubChem CID>
44399816

> <PubChem SID>
104051890

> <ChEMBL ID of Ligand>
CHEMBL191219

> <ZINC ID of Ligand>
ZINC28469288

> <Number of Protein Chains in Target (>
1

> <BindingDB Target Chain Sequence>
MEMEKEFEQIDKSGSWAAIYQDIRHEASDFPCRVAKLPKNKNRNRYRDVSPFDHSRIKLHQEDNDYINASLIKMEEAQRSYILTQGPLPNTCGHFWEMVWEQKSRGVVMLNRVMEKGSLKCAQYWPQKEEKEMIFEDTNLKLTLISEDIKSYYTVRQLELENLTTQETREILHFHYTTWPDFGVPESPASFLNFLFKVRESGSLSPEHGPVVVHCSAGIGRSGTFCLADTCLLLMDKRKDPSSVDIKKVLLEMRKFRMGLIQTADQLRFSYLAVIEGAKFIMGDSSVQDQWKELSHEDLEPPPEHIPPPPRPPKRILEPHNGKCREFFPNHQWVKEETQEDKDCPIKEEKGSPLNAAPYGIESMSQDTEVRSRVVGGSLRGAQAASPAKGEPSLPEKDEDHALSYWKPFLVNMCVATVLTAGAYLCYRFLFNSNT

> <PDB ID(s) of Target Chain>
1BZJ,1G7G,1GFY,1JF7,1KAK,1KAV,1LQF,1NL9,1NNY,1NO6,1NZ7,1OEM,1OEO,1OES,1OET,1OEU,1OEV,1ONY,1ONZ,1PH0,1PXH,1PYN,1Q1M,1Q6J,1Q6M,1Q6N,1Q6P,1Q6S,1Q6T,1QXK,1SUG,1T48,1T49,1T4J,1WAX,1XBO,2AZR,2B07,2BGD,2BGE,2CM2,2CM3,2CM7,2CM8,2CMA,2CMB,2CMC,2CNE,2CNF,2CNG,2CNH,2CNI,2F6T,2F6V,2F6W,2F6Y,2F6Z,2F70,2F71,2FJN,2H4G,2H4K,2HB1,2HNP,2HNQ,2QBP,2QBQ,2QBR,2QBS,2VEU,2VEV,2VEW,2VEX,2VEY,2ZMM,2ZN7,3A5J,3CWE,3D9C,3EAX,3EB1,3EU0,3I7Z,3I80,3SME,4BJO,4I8N,4QBW,4Y14,5K9V,5K9W,5KA0,5KA1,5T19,6B90

> <UniProt (SwissProt) Recommended Name of Target Chain>
Tyrosine-protein phosphatase non-receptor type 1

> <UniProt (SwissProt) Entry Name of Target Chain>
PTN1_HUMAN

> <UniProt (SwissProt) Primary ID of Target Chain>
P18031

> <UniProt (SwissProt) Secondary ID(s) of Target Chain>
Q5TGD8,Q9BQV9,Q9NQQ4

$$$$

  SciTegic10241817252D

 21 21  0  0  0  0            999 V2000
    3.4333   -5.9208    0.0000 P   0  0
    3.2210   -5.1197    0.0000 O   0  0
    4.8652   -5.9208    0.0000 C   0  0
    4.8641   -6.7482    0.0000 C   0  0
    5.5789   -7.1610    0.0000 C   0  0
    6.2953   -6.7477    0.0000 C   0  0
    6.2925   -5.9172    0.0000 C   0  0
    5.5771   -5.5080    0.0000 C   0  0
    4.1493   -7.1601    0.0000 O   0  0
    4.1507   -5.5085    0.0000 C   0  0
    4.1505   -4.6835    0.0000 N   0  0
    3.4359   -4.2711    0.0000 C   0  0  2  0  0  0
    3.4357   -3.4461    0.0000 C   0  0
    2.7211   -3.0338    0.0000 O   0  0
    4.1501   -3.0335    0.0000 O   0  5
    3.4365   -6.7461    0.0000 O   0  0
    2.7221   -7.1588    0.0000 C   0  0
    2.7223   -7.9838    0.0000 C   0  0
    2.7215   -4.6838    0.0000 C   0  0
    2.6083   -5.9167    0.0000 O   0  0
    2.0070   -4.2715    0.0000 O   0  0
 10 11  1  0
 10  1  1  0
  3  4  2  0
 12 11  1  1
  6  7  1  0
 12 13  1  0
 13 14  2  0
  7  8  2  0
 13 15  1  0
  8  3  1  0
  1 16  1  0
  4  5  1  0
 16 17  1  0
  4  9  1  0
 17 18  1  0
  2  1  2  0
 12 19  1  0
  3 10  1  0
  1 20  1  0
  5  6  2  0
 19 21  1  0
M  CHG  1  15  -1
M  END
> <From>
www.bindingDB.org

> <BindingDB Reactant_set_id>
50716871

> <Ligand InChI>
InChI=1S/C12H18NO7P/c1-2-20-21(18,19)11(13-9(7-14)12(16)17)8-5-3-4-6-10(8)15/h3-6,9,11,13-15H,2,7H2,1H3,(H,16,17)(H,18,19)/p-1/t9-,11?/m0/s1

> <Ligand InChI Key>
RCEVIMUPIOPADY-FTNKSUMCSA-M

> <BindingDB MonomerID>
50363857

> <BindingDB Ligand Name>
CHEMBL1946248

> <Target Name Assigned by Curator or DataSource>
Protein-tyrosine phosphatase 1B (PTP1B)

> <Target Source Organism According to Curator or DataSource>
Homo sapiens

> <IC50 (nM)>
135000

> <Curation/DataSource>
ChEMBL

> <Article DOI>
10.1016/j.ejmech.2012.01.038

> <PMID>
22318165

> <Authors>
Wang, Q; Zhu, M; Zhu, R; Lu, L; Yuan, C; Xing, S; Fu, X; Mei, Y; Hang, Q

> <Institution>
Shanxi University

> <Link to Ligand in BindingDB>
http://www.bindingdb.org/bind/chemsearch/marvin/MolStructure.jsp?monomerid=50363857

> <Link to Ligand-Target Pair in BindingDB>
http://www.bindingdb.org/jsp/dbsearch/PrimarySearch_ki.jsp?energyterm=kJ/mole&tag=r21&monomerid=50363857&enzyme=Protein-tyrosine+phosphatase+1B+%28PTP1B%29&column=ki&startPg=0&Increment=50&submit=Search

> <PubChem CID>
91930536

> <PubChem SID>
136967919

> <ChEMBL ID of Ligand>
CHEMBL1946248

> <ZINC ID of Ligand>
ZINC73198521

> <Number of Protein Chains in Target (>
1

> <BindingDB Target Chain Sequence>
MEMEKEFEQIDKSGSWAAIYQDIRHEASDFPCRVAKLPKNKNRNRYRDVSPFDHSRIKLHQEDNDYINASLIKMEEAQRSYILTQGPLPNTCGHFWEMVWEQKSRGVVMLNRVMEKGSLKCAQYWPQKEEKEMIFEDTNLKLTLISEDIKSYYTVRQLELENLTTQETREILHFHYTTWPDFGVPESPASFLNFLFKVRESGSLSPEHGPVVVHCSAGIGRSGTFCLADTCLLLMDKRKDPSSVDIKKVLLEMRKFRMGLIQTADQLRFSYLAVIEGAKFIMGDSSVQDQWKELSHEDLEPPPEHIPPPPRPPKRILEPHNGKCREFFPNHQWVKEETQEDKDCPIKEEKGSPLNAAPYGIESMSQDTEVRSRVVGGSLRGAQAASPAKGEPSLPEKDEDHALSYWKPFLVNMCVATVLTAGAYLCYRFLFNSNT

> <PDB ID(s) of Target Chain>
1BZJ,1G7G,1GFY,1JF7,1KAK,1KAV,1LQF,1NL9,1NNY,1NO6,1NZ7,1OEM,1OEO,1OES,1OET,1OEU,1OEV,1ONY,1ONZ,1PH0,1PXH,1PYN,1Q1M,1Q6J,1Q6M,1Q6N,1Q6P,1Q6S,1Q6T,1QXK,1SUG,1T48,1T49,1T4J,1WAX,1XBO,2AZR,2B07,2BGD,2BGE,2CM2,2CM3,2CM7,2CM8,2CMA,2CMB,2CMC,2CNE,2CNF,2CNG,2CNH,2CNI,2F6T,2F6V,2F6W,2F6Y,2F6Z,2F70,2F71,2FJN,2H4G,2H4K,2HB1,2HNP,2HNQ,2QBP,2QBQ,2QBR,2QBS,2VEU,2VEV,2VEW,2VEX,2VEY,2ZMM,2ZN7,3A5J,3CWE,3D9C,3EAX,3EB1,3EU0,3I7Z,3I80,3SME,4BJO,4I8N,4QBW,4Y14

> <UniProt (SwissProt) Recommended Name of Target Chain>
Tyrosine-protein phosphatase non-receptor type 1

> <UniProt (SwissProt) Entry Name of Target Chain>
PTN1_HUMAN

> <UniProt (SwissProt) Primary ID of Target Chain>
P18031

> <UniProt (SwissProt) Secondary ID(s) of Target Chain>
Q5TGD8,Q9BQV9,Q9NQQ4

$$$$

  SciTegic10241817252D

 27 29  0  0  0  0            999 V2000
   12.6944  -15.0750    0.0000 C   0  0
   12.6932  -15.9023    0.0000 C   0  0
   13.4081  -16.3152    0.0000 C   0  0
   14.1245  -15.9019    0.0000 C   0  0
   14.1216  -15.0713    0.0000 C   0  0
   13.4063  -14.6622    0.0000 C   0  0
   11.9784  -16.3143    0.0000 O   0  0
   13.4038  -13.8372    0.0000 O   0  0
   14.8346  -14.6561    0.0000 C   0  0  3  0  0  0
   15.5506  -15.0659    0.0000 C   0  0
   15.6436  -15.8850    0.0000 S   0  0
   16.4512  -16.0535    0.0000 C   0  0
   16.8610  -15.3374    0.0000 N   0  0
   16.3066  -14.7265    0.0000 C   0  0
   16.4753  -13.9190    0.0000 O   0  0
   16.7896  -16.8059    0.0000 O   0  0
   11.9778  -17.1393    0.0000 C   0  0
   11.2630  -17.5512    0.0000 C   0  0
   10.5506  -17.1354    0.0000 C   0  0
    9.8363  -17.5466    0.0000 C   0  0
    9.8352  -18.3725    0.0000 C   0  0
   10.5544  -18.7854    0.0000 C   0  0
   11.2657  -18.3718    0.0000 C   0  0
   14.1170  -13.4226    0.0000 C   0  0
   14.1146  -12.5976    0.0000 C   0  0
   13.3989  -12.1872    0.0000 O   0  0
   14.8279  -12.1830    0.0000 O   0  0
 17 18  1  0
  9  5  1  4
 18 19  2  0
  4  5  2  0
 19 20  1  0
  9 10  2  0
 20 21  2  0
 10 11  1  0
 21 22  1  0
  2  3  2  0
 22 23  2  0
 23 18  1  0
  5  6  1  0
  8 24  1  0
  6  1  2  0
 24 25  1  0
  1  2  1  0
 11 12  1  0
 12 13  2  0
 13 14  1  0
 14 10  1  0
  2  7  1  0
 14 15  2  0
  3  4  1  0
 12 16  1  0
  6  8  1  0
  7 17  1  0
 25 27  1  0
 25 26  2  0
M  END
> <From>
www.bindingDB.org

> <BindingDB Reactant_set_id>
50650297

> <Ligand InChI>
InChI=1S/C19H15NO6S/c21-17(22)11-26-15-9-14(25-10-12-4-2-1-3-5-12)7-6-13(15)8-16-18(23)20-19(24)27-16/h1-9H,10-11H2,(H,21,22)(H,20,23,24)

> <Ligand InChI Key>
HJWVWLYWCSVNKP-UHFFFAOYSA-N

> <BindingDB MonomerID>
50348696

> <BindingDB Ligand Name>
CHEMBL1801408

> <Target Name Assigned by Curator or DataSource>
Protein-tyrosine phosphatase 1B (PTP1B)

> <Target Source Organism According to Curator or DataSource>
Homo sapiens

> <IC50 (nM)>
136000

> <Curation/DataSource>
ChEMBL

> <Article DOI>
10.1016/j.bmcl.2010.08.130

> <PMID>
20850970

> <Authors>
Bhattarai, BR; Kafle, B; Hwang, JS; Ham, SW; Lee, KH; Park, H; Han, IO; Cho, H

> <Institution>
Inha University

> <Link to Ligand in BindingDB>
http://www.bindingdb.org/bind/chemsearch/marvin/MolStructure.jsp?monomerid=50348696

> <Link to Ligand-Target Pair in BindingDB>
http://www.bindingdb.org/jsp/dbsearch/PrimarySearch_ki.jsp?energyterm=kJ/mole&tag=r21&monomerid=50348696&enzyme=Protein-tyrosine+phosphatase+1B+%28PTP1B%29&column=ki&startPg=0&Increment=50&submit=Search

> <PubChem CID>
56679984

> <PubChem SID>
136355382

> <ChEMBL ID of Ligand>
CHEMBL1801408

> <ZINC ID of Ligand>
ZINC72109265

> <Number of Protein Chains in Target (>
1

> <BindingDB Target Chain Sequence>
MEMEKEFEQIDKSGSWAAIYQDIRHEASDFPCRVAKLPKNKNRNRYRDVSPFDHSRIKLHQEDNDYINASLIKMEEAQRSYILTQGPLPNTCGHFWEMVWEQKSRGVVMLNRVMEKGSLKCAQYWPQKEEKEMIFEDTNLKLTLISEDIKSYYTVRQLELENLTTQETREILHFHYTTWPDFGVPESPASFLNFLFKVRESGSLSPEHGPVVVHCSAGIGRSGTFCLADTCLLLMDKRKDPSSVDIKKVLLEMRKFRMGLIQTADQLRFSYLAVIEGAKFIMGDSSVQDQWKELSHEDLEPPPEHIPPPPRPPKRILEPHNGKCREFFPNHQWVKEETQEDKDCPIKEEKGSPLNAAPYGIESMSQDTEVRSRVVGGSLRGAQAASPAKGEPSLPEKDEDHALSYWKPFLVNMCVATVLTAGAYLCYRFLFNSNT

> <PDB ID(s) of Target Chain>
1BZJ,1G7G,1GFY,1JF7,1KAK,1KAV,1LQF,1NL9,1NNY,1NO6,1NZ7,1OEM,1OEO,1OES,1OET,1OEU,1OEV,1ONY,1ONZ,1PH0,1PXH,1PYN,1Q1M,1Q6J,1Q6M,1Q6N,1Q6P,1Q6S,1Q6T,1QXK,1SUG,1T48,1T49,1T4J,1WAX,1XBO,2AZR,2B07,2BGD,2BGE,2CM2,2CM3,2CM7,2CM8,2CMA,2CMB,2CMC,2CNE,2CNF,2CNG,2CNH,2CNI,2F6T,2F6V,2F6W,2F6Y,2F6Z,2F70,2F71,2FJN,2H4G,2H4K,2HB1,2HNP,2HNQ,2QBP,2QBQ,2QBR,2QBS,2VEU,2VEV,2VEW,2VEX,2VEY,2ZMM,2ZN7,3A5J,3CWE,3D9C,3EAX,3EB1,3EU0,3I7Z,3I80,3SME,4BJO,4I8N,4QBW,4Y14

> <UniProt (SwissProt) Recommended Name of Target Chain>
Tyrosine-protein phosphatase non-receptor type 1

> <UniProt (SwissProt) Entry Name of Target Chain>
PTN1_HUMAN

> <UniProt (SwissProt) Primary ID of Target Chain>
P18031

> <UniProt (SwissProt) Secondary ID(s) of Target Chain>
Q5TGD8,Q9BQV9,Q9NQQ4

$$$$

  SciTegic10241817252D

 24 25  0  0  0  0            999 V2000
   18.1708    1.5125    0.0000 O   0  0
   18.5875    0.7958    0.0000 P   0  0
   18.9998    1.5150    0.0000 O   0  0
   17.1652   -0.8583    0.0000 C   0  0
   17.1641   -1.6857    0.0000 C   0  0
   17.8789   -2.0985    0.0000 C   0  0
   18.5953   -1.6852    0.0000 C   0  0
   18.5925   -0.8547    0.0000 C   0  0
   17.8771   -0.4455    0.0000 C   0  0
   16.4507   -0.4460    0.0000 O   0  0
   17.8746    0.3795    0.0000 C   0  0  1  0  0  0
   17.1589    0.7898    0.0000 N   0  0
   17.1565    1.6148    0.0000 C   0  0
   17.8716    2.0247    0.0000 C   0  0
   17.8695    2.8489    0.0000 C   0  0
   17.1532    3.2601    0.0000 C   0  0
   16.4376    2.8410    0.0000 C   0  0
   16.4433    2.0182    0.0000 C   0  0
   19.3036    0.3837    0.0000 O   0  0
   19.8248    1.5175    0.0000 C   0  0
   20.2351    2.2332    0.0000 C   0  0
   19.3047   -0.4413    0.0000 C   0  0
   20.0197   -0.8528    0.0000 C   0  0
   15.7321    1.6001    0.0000 Cl  0  0
 11 12  1  1
  6  7  2  0
 12 13  1  0
  2  1  2  0
 13 14  2  0
  7  8  1  0
 14 15  1  0
  4  5  2  0
 15 16  2  0
  8  9  2  0
 16 17  1  0
  9  4  1  0
 17 18  2  0
 18 13  1  0
  3  2  1  0
  2 19  1  0
  4 10  1  0
  3 20  1  0
  5  6  1  0
 20 21  1  0
 11  9  1  0
 19 22  1  0
 11  2  1  0
 22 23  1  0
 18 24  1  0
M  END
> <From>
www.bindingDB.org

> <BindingDB Reactant_set_id>
50716869

> <Ligand InChI>
InChI=1S/C17H21ClNO4P/c1-3-22-24(21,23-4-2)17(13-9-5-8-12-16(13)20)19-15-11-7-6-10-14(15)18/h5-12,17,19-20H,3-4H2,1-2H3/t17-/m0/s1

> <Ligand InChI Key>
FSXWRYHYWJUFSM-KRWDZBQOSA-N

> <BindingDB MonomerID>
50363855

> <BindingDB Ligand Name>
CHEMBL1946246

> <Target Name Assigned by Curator or DataSource>
Protein-tyrosine phosphatase 1B (PTP1B)

> <Target Source Organism According to Curator or DataSource>
Homo sapiens

> <IC50 (nM)>
137000

> <Curation/DataSource>
ChEMBL

> <Article DOI>
10.1016/j.ejmech.2012.01.038

> <PMID>
22318165

> <Authors>
Wang, Q; Zhu, M; Zhu, R; Lu, L; Yuan, C; Xing, S; Fu, X; Mei, Y; Hang, Q

> <Institution>
Shanxi University

> <Link to Ligand in BindingDB>
http://www.bindingdb.org/bind/chemsearch/marvin/MolStructure.jsp?monomerid=50363855

> <Link to Ligand-Target Pair in BindingDB>
http://www.bindingdb.org/jsp/dbsearch/PrimarySearch_ki.jsp?energyterm=kJ/mole&tag=r21&monomerid=50363855&enzyme=Protein-tyrosine+phosphatase+1B+%28PTP1B%29&column=ki&startPg=0&Increment=50&submit=Search

> <PubChem CID>
57390693

> <PubChem SID>
136967917

> <ChEMBL ID of Ligand>
CHEMBL1946246

> <ZINC ID of Ligand>
ZINC82152553

> <Number of Protein Chains in Target (>
1

> <BindingDB Target Chain Sequence>
MEMEKEFEQIDKSGSWAAIYQDIRHEASDFPCRVAKLPKNKNRNRYRDVSPFDHSRIKLHQEDNDYINASLIKMEEAQRSYILTQGPLPNTCGHFWEMVWEQKSRGVVMLNRVMEKGSLKCAQYWPQKEEKEMIFEDTNLKLTLISEDIKSYYTVRQLELENLTTQETREILHFHYTTWPDFGVPESPASFLNFLFKVRESGSLSPEHGPVVVHCSAGIGRSGTFCLADTCLLLMDKRKDPSSVDIKKVLLEMRKFRMGLIQTADQLRFSYLAVIEGAKFIMGDSSVQDQWKELSHEDLEPPPEHIPPPPRPPKRILEPHNGKCREFFPNHQWVKEETQEDKDCPIKEEKGSPLNAAPYGIESMSQDTEVRSRVVGGSLRGAQAASPAKGEPSLPEKDEDHALSYWKPFLVNMCVATVLTAGAYLCYRFLFNSNT

> <PDB ID(s) of Target Chain>
1BZJ,1G7G,1GFY,1JF7,1KAK,1KAV,1LQF,1NL9,1NNY,1NO6,1NZ7,1OEM,1OEO,1OES,1OET,1OEU,1OEV,1ONY,1ONZ,1PH0,1PXH,1PYN,1Q1M,1Q6J,1Q6M,1Q6N,1Q6P,1Q6S,1Q6T,1QXK,1SUG,1T48,1T49,1T4J,1WAX,1XBO,2AZR,2B07,2BGD,2BGE,2CM2,2CM3,2CM7,2CM8,2CMA,2CMB,2CMC,2CNE,2CNF,2CNG,2CNH,2CNI,2F6T,2F6V,2F6W,2F6Y,2F6Z,2F70,2F71,2FJN,2H4G,2H4K,2HB1,2HNP,2HNQ,2QBP,2QBQ,2QBR,2QBS,2VEU,2VEV,2VEW,2VEX,2VEY,2ZMM,2ZN7,3A5J,3CWE,3D9C,3EAX,3EB1,3EU0,3I7Z,3I80,3SME,4BJO,4I8N,4QBW,4Y14

> <UniProt (SwissProt) Recommended Name of Target Chain>
Tyrosine-protein phosphatase non-receptor type 1

> <UniProt (SwissProt) Entry Name of Target Chain>
PTN1_HUMAN

> <UniProt (SwissProt) Primary ID of Target Chain>
P18031

> <UniProt (SwissProt) Secondary ID(s) of Target Chain>
Q5TGD8,Q9BQV9,Q9NQQ4

$$$$

  SciTegic10241817252D

 36 39  0  0  0  0            999 V2000
   10.2186   -7.8003    0.0000 C   0  0
   10.2174   -8.6273    0.0000 C   0  0
   10.9319   -9.0400    0.0000 C   0  0
   11.6480   -8.6268    0.0000 C   0  0
   11.6451   -7.7967    0.0000 C   0  0
   10.9301   -7.3878    0.0000 C   0  0
   12.3577   -7.3817    0.0000 C   0  0
   12.3546   -6.5571    0.0000 N   0  0
   13.0671   -6.1421    0.0000 C   0  0
   11.6389   -6.1475    0.0000 S   0  0
   10.9197   -5.7347    0.0000 C   0  0
   11.2289   -6.8630    0.0000 O   0  0
   12.0530   -5.4345    0.0000 O   0  0
   10.9204   -4.9043    0.0000 C   0  0
   10.2019   -4.4916    0.0000 C   0  0
    9.4839   -4.9081    0.0000 C   0  0
    9.4887   -5.7417    0.0000 C   0  0
   10.2076   -6.1507    0.0000 C   0  0
    9.5030   -9.0390    0.0000 C   0  0
    8.7484   -8.7045    0.0000 C   0  0
    8.1962   -9.3169    0.0000 S   0  0
    8.6080  -10.0314    0.0000 N   0  0
    9.4146   -9.8604    0.0000 N   0  0
   13.7828   -6.5517    0.0000 C   0  0
   13.7811   -7.3767    0.0000 C   0  0
   14.4959   -7.7862    0.0000 C   0  0
   15.2095   -7.3711    0.0000 C   0  0
   15.2037   -6.5423    0.0000 C   0  0
   14.4883   -6.1365    0.0000 C   0  0
   15.9257   -7.7798    0.0000 O   0  0
   16.6377   -7.3639    0.0000 C   0  0
   17.3539   -7.7725    0.0000 C   0  0
   17.3608   -8.5967    0.0000 O   0  0
   18.0686   -7.3562    0.0000 O   0  0
   15.9148   -6.1248    0.0000 F   0  0
   14.4986   -8.6108    0.0000 F   0  0
 17 18  1  0
 18 11  2  0
  8  9  1  0
  2 19  1  0
 19 20  2  0
  4  5  2  0
  8 10  1  0
  2  3  2  0
 10 11  1  0
 20 21  1  0
 21 22  1  0
 22 23  2  0
 23 19  1  0
  5  6  1  0
  9 24  1  0
 10 12  2  0
 24 25  2  0
  6  1  2  0
 25 26  1  0
 10 13  2  0
 26 27  2  0
  1  2  1  0
 27 28  1  0
 11 14  1  0
 28 29  2  0
 29 24  1  0
  5  7  1  0
 27 30  1  0
 14 15  2  0
 30 31  1  0
  3  4  1  0
 31 32  1  0
 15 16  1  0
  7  8  1  0
 32 33  1  0
 32 34  2  0
 16 17  2  0
 28 35  1  0
 26 36  1  0
M  END
> <From>
www.bindingDB.org

> <BindingDB Reactant_set_id>
50867334

> <Ligand InChI>
InChI=1S/C24H19F2N3O5S2/c25-20-10-17(11-21(26)24(20)34-14-23(30)31)13-29(36(32,33)19-4-2-1-3-5-19)12-16-6-8-18(9-7-16)22-15-35-28-27-22/h1-11,15H,12-14H2,(H,30,31)

> <Ligand InChI Key>
USRKGHSGWFSQKC-UHFFFAOYSA-N

> <BindingDB MonomerID>
50376619

> <BindingDB Ligand Name>
CHEMBL259171

> <Target Name Assigned by Curator or DataSource>
Protein-tyrosine phosphatase 1B (PTP1B)

> <Target Source Organism According to Curator or DataSource>
Homo sapiens

> <IC50 (nM)>
137000

> <Curation/DataSource>
ChEMBL

> <Article DOI>
10.1016/j.bmcl.2008.03.007

> <PMID>
18372175

> <Authors>
Holmes, CP; Li, X; Pan, Y; Xu, C; Bhandari, A; Moody, CM; Miguel, JA; Ferla, SW; De Francisco, MN; Frederick, BT; Zhou, S; Macher, N; Jang, L; Irvine, JD; Grove, JR

> <Institution>
Affymax, Inc.

> <Link to Ligand in BindingDB>
http://www.bindingdb.org/bind/chemsearch/marvin/MolStructure.jsp?monomerid=50376619

> <Link to Ligand-Target Pair in BindingDB>
http://www.bindingdb.org/jsp/dbsearch/PrimarySearch_ki.jsp?energyterm=kJ/mole&tag=r21&monomerid=50376619&enzyme=Protein-tyrosine+phosphatase+1B+%28PTP1B%29&column=ki&startPg=0&Increment=50&submit=Search

> <PubChem CID>
44450285

> <PubChem SID>
160855702

> <ChEMBL ID of Ligand>
CHEMBL259171

> <ZINC ID of Ligand>
ZINC29051486

> <Number of Protein Chains in Target (>
1

> <BindingDB Target Chain Sequence>
MEMEKEFEQIDKSGSWAAIYQDIRHEASDFPCRVAKLPKNKNRNRYRDVSPFDHSRIKLHQEDNDYINASLIKMEEAQRSYILTQGPLPNTCGHFWEMVWEQKSRGVVMLNRVMEKGSLKCAQYWPQKEEKEMIFEDTNLKLTLISEDIKSYYTVRQLELENLTTQETREILHFHYTTWPDFGVPESPASFLNFLFKVRESGSLSPEHGPVVVHCSAGIGRSGTFCLADTCLLLMDKRKDPSSVDIKKVLLEMRKFRMGLIQTADQLRFSYLAVIEGAKFIMGDSSVQDQWKELSHEDLEPPPEHIPPPPRPPKRILEPHNGKCREFFPNHQWVKEETQEDKDCPIKEEKGSPLNAAPYGIESMSQDTEVRSRVVGGSLRGAQAASPAKGEPSLPEKDEDHALSYWKPFLVNMCVATVLTAGAYLCYRFLFNSNT

> <PDB ID(s) of Target Chain>
1BZJ,1G7G,1GFY,1JF7,1KAK,1KAV,1LQF,1NL9,1NNY,1NO6,1NZ7,1OEM,1OEO,1OES,1OET,1OEU,1OEV,1ONY,1ONZ,1PH0,1PXH,1PYN,1Q1M,1Q6J,1Q6M,1Q6N,1Q6P,1Q6S,1Q6T,1QXK,1SUG,1T48,1T49,1T4J,1WAX,1XBO,2AZR,2B07,2BGD,2BGE,2CM2,2CM3,2CM7,2CM8,2CMA,2CMB,2CMC,2CNE,2CNF,2CNG,2CNH,2CNI,2F6T,2F6V,2F6W,2F6Y,2F6Z,2F70,2F71,2FJN,2H4G,2H4K,2HB1,2HNP,2HNQ,2QBP,2QBQ,2QBR,2QBS,2VEU,2VEV,2VEW,2VEX,2VEY,2ZMM,2ZN7,3A5J,3CWE,3D9C,3EAX,3EB1,3EU0,3I7Z,3I80,3SME,4BJO,4I8N,4QBW,4Y14

> <UniProt (SwissProt) Recommended Name of Target Chain>
Tyrosine-protein phosphatase non-receptor type 1

> <UniProt (SwissProt) Entry Name of Target Chain>
PTN1_HUMAN

> <UniProt (SwissProt) Primary ID of Target Chain>
P18031

> <UniProt (SwissProt) Secondary ID(s) of Target Chain>
Q5TGD8,Q9BQV9,Q9NQQ4

$$$$

  SciTegic10241817252D

 18 19  0  0  0  0            999 V2000
    3.6342  -16.8375    0.0000 C   0  0
    4.0525  -17.5513    0.0000 C   0  0
    4.8779  -17.5450    0.0000 C   0  0
    5.2861  -16.8256    0.0000 C   0  0
    4.8627  -16.1111    0.0000 C   0  0
    4.0387  -16.1209    0.0000 C   0  0
    5.2669  -15.3919    0.0000 C   0  0
    6.0919  -15.3823    0.0000 C   0  0
    6.5126  -16.0920    0.0000 C   0  0
    6.1055  -16.8104    0.0000 C   0  0
    6.5256  -17.5196    0.0000 C   0  0
    7.3514  -17.5105    0.0000 C   0  0
    7.7554  -16.7862    0.0000 C   0  0
    7.3330  -16.0800    0.0000 C   0  0
    7.7731  -18.2195    0.0000 C   0  0
    7.3699  -18.9393    0.0000 O   0  0
    2.8092  -16.8441    0.0000 O   0  0
    3.6450  -18.2687    0.0000 O   0  0
  8  9  1  0
  4  5  2  0
  9 10  2  0
  2  3  2  0
 10 11  1  0
  5  6  1  0
 11 12  2  0
  6  1  2  0
 12 13  1  0
  1  2  1  0
 13 14  2  0
 14  9  1  0
  5  7  1  0
 12 15  1  0
  3  4  1  0
 15 16  1  0
  7  8  2  0
  1 17  1  0
  2 18  1  0
M  END
> <From>
www.bindingDB.org

> <BindingDB Reactant_set_id>
50848903

> <Ligand InChI>
InChI=1S/C15H14O3/c16-10-13-5-2-11(3-6-13)1-4-12-7-8-14(17)15(18)9-12/h1-9,16-18H,10H2/b4-1-

> <Ligand InChI Key>
MOPNRRIRKWSIQS-RJRFIUFISA-N

> <BindingDB MonomerID>
50216881

> <BindingDB Ligand Name>
CHEMBL231937::cis-4-(4-(hydroxymethyl)styryl)benzene-1,2-diol

> <Target Name Assigned by Curator or DataSource>
Protein-tyrosine phosphatase 1B (PTP1B)

> <Target Source Organism According to Curator or DataSource>
Homo sapiens

> <IC50 (nM)>
137500

> <Curation/DataSource>
ChEMBL

> <Article DOI>
10.1016/j.bmcl.2007.06.016

> <PMID>
17596944

> <Authors>
Jung, M; Lee, Y; Park, M; Kim, H; Kim, H; Lim, E; Tak, J; Sim, M; Lee, D; Park, N; Oh, WK; Hur, KY; Kang, ES; Lee, HC

> <Institution>
Yonsei University

> <Link to Ligand in BindingDB>
http://www.bindingdb.org/bind/chemsearch/marvin/MolStructure.jsp?monomerid=50216881

> <Link to Ligand-Target Pair in BindingDB>
http://www.bindingdb.org/jsp/dbsearch/PrimarySearch_ki.jsp?energyterm=kJ/mole&tag=r21&monomerid=50216881&enzyme=Protein-tyrosine+phosphatase+1B+%28PTP1B%29&column=ki&startPg=0&Increment=50&submit=Search

> <PubChem CID>
44432621

> <PubChem SID>
104091149

> <ChEMBL ID of Ligand>
CHEMBL231937

> <ZINC ID of Ligand>
ZINC28823005

> <Number of Protein Chains in Target (>
1

> <BindingDB Target Chain Sequence>
MEMEKEFEQIDKSGSWAAIYQDIRHEASDFPCRVAKLPKNKNRNRYRDVSPFDHSRIKLHQEDNDYINASLIKMEEAQRSYILTQGPLPNTCGHFWEMVWEQKSRGVVMLNRVMEKGSLKCAQYWPQKEEKEMIFEDTNLKLTLISEDIKSYYTVRQLELENLTTQETREILHFHYTTWPDFGVPESPASFLNFLFKVRESGSLSPEHGPVVVHCSAGIGRSGTFCLADTCLLLMDKRKDPSSVDIKKVLLEMRKFRMGLIQTADQLRFSYLAVIEGAKFIMGDSSVQDQWKELSHEDLEPPPEHIPPPPRPPKRILEPHNGKCREFFPNHQWVKEETQEDKDCPIKEEKGSPLNAAPYGIESMSQDTEVRSRVVGGSLRGAQAASPAKGEPSLPEKDEDHALSYWKPFLVNMCVATVLTAGAYLCYRFLFNSNT

> <PDB ID(s) of Target Chain>
1BZJ,1G7G,1GFY,1JF7,1KAK,1KAV,1LQF,1NL9,1NNY,1NO6,1NZ7,1OEM,1OEO,1OES,1OET,1OEU,1OEV,1ONY,1ONZ,1PH0,1PXH,1PYN,1Q1M,1Q6J,1Q6M,1Q6N,1Q6P,1Q6S,1Q6T,1QXK,1SUG,1T48,1T49,1T4J,1WAX,1XBO,2AZR,2B07,2BGD,2BGE,2CM2,2CM3,2CM7,2CM8,2CMA,2CMB,2CMC,2CNE,2CNF,2CNG,2CNH,2CNI,2F6T,2F6V,2F6W,2F6Y,2F6Z,2F70,2F71,2FJN,2H4G,2H4K,2HB1,2HNP,2HNQ,2QBP,2QBQ,2QBR,2QBS,2VEU,2VEV,2VEW,2VEX,2VEY,2ZMM,2ZN7,3A5J,3CWE,3D9C,3EAX,3EB1,3EU0,3I7Z,3I80,3SME,4BJO,4I8N,4QBW,4Y14

> <UniProt (SwissProt) Recommended Name of Target Chain>
Tyrosine-protein phosphatase non-receptor type 1

> <UniProt (SwissProt) Entry Name of Target Chain>
PTN1_HUMAN

> <UniProt (SwissProt) Primary ID of Target Chain>
P18031

> <UniProt (SwissProt) Secondary ID(s) of Target Chain>
Q5TGD8,Q9BQV9,Q9NQQ4

$$$$
 
  SciTegic10241817252D

 12 12  0  0  0  0            999 V2000
   -3.9052  -20.7354    0.0000 C   0  0
   -3.9064  -21.5626    0.0000 C   0  0
   -3.1916  -21.9755    0.0000 C   0  0
   -2.4753  -21.5622    0.0000 C   0  0
   -2.4782  -20.7317    0.0000 C   0  0
   -3.1934  -20.3227    0.0000 C   0  0
   -1.7652  -20.3166    0.0000 O   0  0
   -1.7602  -21.9735    0.0000 C   0  0
   -1.0465  -21.5599    0.0000 C   0  0
   -0.3314  -21.9713    0.0000 C   0  0
    0.3824  -21.5577    0.0000 O   0  0
   -0.3301  -22.7962    0.0000 O   0  0
  6  1  2  0
  1  2  1  0
  5  7  1  0
  3  4  1  0
  4  8  1  0
  8  9  2  0
  4  5  2  0
  9 10  1  0
  2  3  2  0
 10 11  1  0
  5  6  1  0
 10 12  2  0
M  END
> <Name>
 

> <From>
www.bindingDB.org

> <BindingDB Reactant_set_id>
424011

> <Ligand InChI>
InChI=1S/C9H8O3/c10-8-4-2-1-3-7(8)5-6-9(11)12/h1-6,10H,(H,11,12)/b6-5+

> <Ligand InChI Key>
PMOWTIHVNWZYFI-AATRIKPKSA-N

> <BindingDB MonomerID>
50146462

> <BindingDB Ligand Name>
(2E)-3-(2-hydroxyphenyl)-2-propenoic acid::(2E)-3-(2-hydroxyphenyl)prop-2-enoic acid::(2E)-3-(2-hydroxyphenyl)prop-2-enoic acid (7)::(E)-2-hydroxycinnamic acid::(E)-3-(2-hydroxyphenyl)-2-propenoic acid::(E)-o-hydroxycinnamic acid::CHEMBL52564::o-Hydroxycinnamic acid (o-HCA)::o-hydroxy-trans-cinnamic acid::trans-2-coumaric acid::trans-o-hydroxycinnamic acid

> <Target Name Assigned by Curator or DataSource>
Protein tyrosine phosphatase 1B (PTP1B)

> <IC50 (nM)>
137740

> <pH>
7.5

> <Temp C>
37

> <Curation/DataSource>
Curated from the literature by BindingDB

> <Article DOI>
10.3109/14756366.2012.715286

> <PMID>
22957721

> <Authors>
Adisakwattana, S; Pongsuwan, J; Wungcharoen, C; Yibchok-anun, S

> <Institution>
Chulalongkorn University

> <Link to Ligand in BindingDB>
http://www.bindingdb.org/bind/chemsearch/marvin/MolStructure.jsp?monomerid=50146462

> <Link to Ligand-Target Pair in BindingDB>
http://www.bindingdb.org/jsp/dbsearch/PrimarySearch_ki.jsp?energyterm=kJ/mole&tag=r21&monomerid=50146462&enzyme=Protein+tyrosine+phosphatase+1B+%28PTP1B%29&column=ki&startPg=0&Increment=50&submit=Search

> <Ligand HET ID in PDB>
2HC

> <PDB ID(s) for Ligand-Target Complex>
1V5Z,5BNL

> <PubChem CID>
637540

> <PubChem SID>
104035051

> <ChEBI ID of Ligand>
18176

> <ChEMBL ID of Ligand>
CHEMBL52564

> <DrugBank ID of Ligand>
DB01650

> <KEGG ID of Ligand>
C01772

> <ZINC ID of Ligand>
ZINC00895911

> <Number of Protein Chains in Target (>
1

> <BindingDB Target Chain Sequence>
MEMEKEFEQIDKSGSWAAIYQDIRHEASDFPCRVAKLPKNKNRNRYRDVSPFDHSRIKLHQEDNDYINASLIKMEEAQRSYILTQGPLPNTCGHFWEMVWEQKSRGVVMLNRVMEKGSLKCAQYWPQKEEKEMIFEDTNLKLTLISEDIKSYYTVRQLELENLTTQETREILHFHYTTWPDFGVPESPASFLNFLFKVRESGSLSPEHGPVVVHCSAGIGRSGTFCLADTCLLLMDKRKDPSSVDIKKVLLEMRKFRMGLIQTADQLRFSYLAVIEGAKFIMGDSSVQDQWKELSHEDLEPPPEHIPPPPRPPKRILEPHN

> <PDB ID(s) of Target Chain>
6B90

$$$$

  SciTegic10241817252D

 16 17  0  0  0  0            999 V2000
    1.2917    1.2708    0.0000 S   0  0
    1.1667    0.4458    0.0000 N   0  0
    2.1042    1.4083    0.0000 N   0  0
    2.4875    0.6833    0.0000 C   0  0
    1.9167    0.0833    0.0000 C   0  0
    0.4542    0.0333    0.0000 C   0  0
    1.1917    2.0875    0.0000 O   0  0
    0.4667    1.3875    0.0000 O   0  0
    3.3125    0.5833    0.0000 O   0  0
    0.4542   -0.7917    0.0000 C   0  0
   -0.2625    0.4458    0.0000 C   0  0
    1.1667   -1.2042    0.0000 O   0  0
   -0.2625   -1.2042    0.0000 C   0  0
    1.8792   -0.7917    0.0000 C   0  0
   -0.9750    0.0333    0.0000 C   0  0
   -0.9750   -0.7917    0.0000 C   0  0
  2  1  1  0
  3  1  1  0
  4  3  1  0
  5  2  1  0
  6  2  1  0
  7  1  2  0
  8  1  2  0
  9  4  2  0
 10  6  2  0
 11  6  1  0
 12 10  1  0
 13 10  1  0
 14 12  1  0
 15 11  2  0
 16 15  1  0
  5  4  1  0
 16 13  2  0
M  END
> <From>
www.bindingDB.org

> <BindingDB Reactant_set_id>
50307172

> <Ligand InChI>
InChI=1S/C9H10N2O4S/c1-15-8-5-3-2-4-7(8)11-6-9(12)10-16(11,13)14/h2-5H,6H2,1H3,(H,10,12)

> <Ligand InChI Key>
OZTFMESDUYNAEZ-UHFFFAOYSA-N

> <BindingDB MonomerID>
50166433

> <BindingDB Ligand Name>
5-(2-Methoxy-phenyl)-1,1-dioxo-1lambda*6*-[1,2,5]thiadiazolidin-3-one::CHEMBL190833

> <Target Name Assigned by Curator or DataSource>
Protein-tyrosine phosphatase 1B

> <Target Source Organism According to Curator or DataSource>
Homo sapiens

> <IC50 (nM)>
138000

> <Curation/DataSource>
ChEMBL

> <Article DOI>
10.1016/j.bmcl.2005.03.068

> <PMID>
15863305

> <Authors>
Black, E; Breed, J; Breeze, AL; Embrey, K; Garcia, R; Gero, TW; Godfrey, L; Kenny, PW; Morley, AD; Minshull, CA; Pannifer, AD; Read, J; Rees, A; Russell, DJ; Toader, D; Tucker, J

> <Institution>
AstraZeneca

> <Link to Ligand in BindingDB>
http://www.bindingdb.org/bind/chemsearch/marvin/MolStructure.jsp?monomerid=50166433

> <Link to Ligand-Target Pair in BindingDB>
http://www.bindingdb.org/jsp/dbsearch/PrimarySearch_ki.jsp?energyterm=kJ/mole&tag=r21&monomerid=50166433&enzyme=Protein-tyrosine+phosphatase+1B&column=ki&startPg=0&Increment=50&submit=Search

> <PubChem CID>
44399820

> <PubChem SID>
104051891

> <ChEMBL ID of Ligand>
CHEMBL190833

> <ZINC ID of Ligand>
ZINC28469581

> <Number of Protein Chains in Target (>
1

> <BindingDB Target Chain Sequence>
MEMEKEFEQIDKSGSWAAIYQDIRHEASDFPCRVAKLPKNKNRNRYRDVSPFDHSRIKLHQEDNDYINASLIKMEEAQRSYILTQGPLPNTCGHFWEMVWEQKSRGVVMLNRVMEKGSLKCAQYWPQKEEKEMIFEDTNLKLTLISEDIKSYYTVRQLELENLTTQETREILHFHYTTWPDFGVPESPASFLNFLFKVRESGSLSPEHGPVVVHCSAGIGRSGTFCLADTCLLLMDKRKDPSSVDIKKVLLEMRKFRMGLIQTADQLRFSYLAVIEGAKFIMGDSSVQDQWKELSHEDLEPPPEHIPPPPRPPKRILEPHNGKCREFFPNHQWVKEETQEDKDCPIKEEKGSPLNAAPYGIESMSQDTEVRSRVVGGSLRGAQAASPAKGEPSLPEKDEDHALSYWKPFLVNMCVATVLTAGAYLCYRFLFNSNT

> <PDB ID(s) of Target Chain>
1BZJ,1G7G,1GFY,1JF7,1KAK,1KAV,1LQF,1NL9,1NNY,1NO6,1NZ7,1OEM,1OEO,1OES,1OET,1OEU,1OEV,1ONY,1ONZ,1PH0,1PXH,1PYN,1Q1M,1Q6J,1Q6M,1Q6N,1Q6P,1Q6S,1Q6T,1QXK,1SUG,1T48,1T49,1T4J,1WAX,1XBO,2AZR,2B07,2BGD,2BGE,2CM2,2CM3,2CM7,2CM8,2CMA,2CMB,2CMC,2CNE,2CNF,2CNG,2CNH,2CNI,2F6T,2F6V,2F6W,2F6Y,2F6Z,2F70,2F71,2FJN,2H4G,2H4K,2HB1,2HNP,2HNQ,2QBP,2QBQ,2QBR,2QBS,2VEU,2VEV,2VEW,2VEX,2VEY,2ZMM,2ZN7,3A5J,3CWE,3D9C,3EAX,3EB1,3EU0,3I7Z,3I80,3SME,4BJO,4I8N,4QBW,4Y14,5K9V,5K9W,5KA0,5KA1,5T19,6B90

> <UniProt (SwissProt) Recommended Name of Target Chain>
Tyrosine-protein phosphatase non-receptor type 1

> <UniProt (SwissProt) Entry Name of Target Chain>
PTN1_HUMAN

> <UniProt (SwissProt) Primary ID of Target Chain>
P18031

> <UniProt (SwissProt) Secondary ID(s) of Target Chain>
Q5TGD8,Q9BQV9,Q9NQQ4

$$$$
 
  SciTegic10241817252D

 24 26  0  0  0  0            999 V2000
    2.1694    1.1000    0.0000 C   0  0
    2.1682    0.2727    0.0000 C   0  0
    2.8831   -0.1402    0.0000 C   0  0
    3.5995    0.2731    0.0000 C   0  0
    3.5966    1.1037    0.0000 C   0  0
    2.8813    1.5128    0.0000 C   0  0
    4.3096    1.5189    0.0000 C   0  0
    5.0256    1.1091    0.0000 C   0  0
    4.3064    2.3439    0.0000 O   0  0
    5.7385    1.5242    0.0000 C   0  0
    6.4545    1.1144    0.0000 C   0  0
    6.4545    0.2906    0.0000 C   0  0
    7.1697   -0.1191    0.0000 C   0  0
    2.8788    2.3378    0.0000 O   0  0
    3.5920    2.7524    0.0000 C   0  0
    7.1620    1.5313    0.0000 C   0  0
    2.8829   -0.9652    0.0000 O   0  0
    2.1683   -1.3775    0.0000 C   0  0
    7.8759    1.1250    0.0000 C   0  0
    7.8807    0.2977    0.0000 C   0  0
    8.5985   -0.1101    0.0000 C   0  0
    9.3120    0.3085    0.0000 C   0  0
    9.3031    1.1390    0.0000 C   0  0
    8.5848    1.5429    0.0000 C   0  0
 11 12  2  0
  6  1  2  0
 12 13  1  0
 13 20  2  0
 16 11  1  0
  1  2  1  0
  6 14  1  0
  5  7  1  0
 14 15  1  0
  3  4  1  0
 16 19  2  0
  7  8  1  0
  3 17  1  0
 17 18  1  0
  7  9  2  0
  4  5  2  0
 19 20  1  0
  8 10  2  0
 20 21  1  0
  2  3  2  0
 21 22  2  0
 10 11  1  0
 22 23  1  0
  5  6  1  0
 23 24  2  0
 24 19  1  0
M  END
> <Name>
 

> <From>
www.bindingDB.org

> <BindingDB Reactant_set_id>
50913904

> <Ligand InChI>
InChI=1S/C21H18O3/c1-23-18-10-12-21(24-2)19(14-18)20(22)11-8-15-7-9-16-5-3-4-6-17(16)13-15/h3-14H,1-2H3/b11-8+

> <Ligand InChI Key>
QKWBRSNEHBMVCF-DHZHZOJOSA-N

> <BindingDB MonomerID>
50193042

> <BindingDB Ligand Name>
(2E)-1-(2',5'-dimethoxyphenyl)-3-(2-naphthyl)-2-propen-1-one::1-(2',5'-dimethoxyphenyl)-3-(2-naphthyl)-2-propen-1-one::1-(2,5-dimethoxyphenyl)-3-(naphthalen-2-yl)prop-2-en-1-one::CHEMBL441861

> <Target Name Assigned by Curator or DataSource>
Protein-tyrosine phosphatase 1B (PTP1B)

> <Target Source Organism According to Curator or DataSource>
Homo sapiens

> <IC50 (nM)>
144540

> <Curation/DataSource>
ChEMBL

> <Article DOI>
10.1016/j.bmc.2010.04.051

> <PMID>
20462762

> <Authors>
Mascarello, A; Chiaradia, LD; Vernal, J; Villarino, A; Guido, RV; Perizzolo, P; Poirier, V; Wong, D; Martins, PG; Nunes, RJ; Yunes, RA; Andricopulo, AD; Av-Gay, Y; Terenzi, H

> <Institution>
Universidade Federal de Santa Catarina

> <Link to Ligand in BindingDB>
http://www.bindingdb.org/bind/chemsearch/marvin/MolStructure.jsp?monomerid=50193042

> <Link to Ligand-Target Pair in BindingDB>
http://www.bindingdb.org/jsp/dbsearch/PrimarySearch_ki.jsp?energyterm=kJ/mole&tag=r21&monomerid=50193042&enzyme=Protein-tyrosine+phosphatase+1B+%28PTP1B%29&column=ki&startPg=0&Increment=50&submit=Search

> <PubChem CID>
7947894

> <PubChem SID>
104075689

> <ChEMBL ID of Ligand>
CHEMBL441861

> <ZINC ID of Ligand>
ZINC06341445

> <Number of Protein Chains in Target (>
1

> <BindingDB Target Chain Sequence>
MEMEKEFEQIDKSGSWAAIYQDIRHEASDFPCRVAKLPKNKNRNRYRDVSPFDHSRIKLHQEDNDYINASLIKMEEAQRSYILTQGPLPNTCGHFWEMVWEQKSRGVVMLNRVMEKGSLKCAQYWPQKEEKEMIFEDTNLKLTLISEDIKSYYTVRQLELENLTTQETREILHFHYTTWPDFGVPESPASFLNFLFKVRESGSLSPEHGPVVVHCSAGIGRSGTFCLADTCLLLMDKRKDPSSVDIKKVLLEMRKFRMGLIQTADQLRFSYLAVIEGAKFIMGDSSVQDQWKELSHEDLEPPPEHIPPPPRPPKRILEPHNGKCREFFPNHQWVKEETQEDKDCPIKEEKGSPLNAAPYGIESMSQDTEVRSRVVGGSLRGAQAASPAKGEPSLPEKDEDHALSYWKPFLVNMCVATVLTAGAYLCYRFLFNSNT

> <PDB ID(s) of Target Chain>
1BZJ,1G7G,1GFY,1JF7,1KAK,1KAV,1LQF,1NL9,1NNY,1NO6,1NZ7,1OEM,1OEO,1OES,1OET,1OEU,1OEV,1ONY,1ONZ,1PH0,1PXH,1PYN,1Q1M,1Q6J,1Q6M,1Q6N,1Q6P,1Q6S,1Q6T,1QXK,1SUG,1T48,1T49,1T4J,1WAX,1XBO,2AZR,2B07,2BGD,2BGE,2CM2,2CM3,2CM7,2CM8,2CMA,2CMB,2CMC,2CNE,2CNF,2CNG,2CNH,2CNI,2F6T,2F6V,2F6W,2F6Y,2F6Z,2F70,2F71,2FJN,2H4G,2H4K,2HB1,2HNP,2HNQ,2QBP,2QBQ,2QBR,2QBS,2VEU,2VEV,2VEW,2VEX,2VEY,2ZMM,2ZN7,3A5J,3CWE,3D9C,3EAX,3EB1,3EU0,3I7Z,3I80,3SME,4BJO,4I8N,4QBW,4Y14

> <UniProt (SwissProt) Recommended Name of Target Chain>
Tyrosine-protein phosphatase non-receptor type 1

> <UniProt (SwissProt) Entry Name of Target Chain>
PTN1_HUMAN

> <UniProt (SwissProt) Primary ID of Target Chain>
P18031

> <UniProt (SwissProt) Secondary ID(s) of Target Chain>
Q5TGD8,Q9BQV9,Q9NQQ4

$$$$

  SciTegic10241817252D

 18 19  0  0  0  0            999 V2000
   12.9361   -5.1500    0.0000 C   0  0
   12.9349   -5.9773    0.0000 C   0  0
   13.6497   -6.3902    0.0000 C   0  0
   14.3662   -5.9769    0.0000 C   0  0
   14.3633   -5.1463    0.0000 C   0  0
   13.6479   -4.7372    0.0000 C   0  0
   15.0824   -6.3883    0.0000 C   0  0
   15.0837   -7.2133    0.0000 O   0  0
   15.7962   -5.9746    0.0000 O   0  0
   13.6495   -7.2152    0.0000 O   0  0
   12.2201   -6.3893    0.0000 C   0  0
   11.5060   -5.9762    0.0000 C   0  0
   11.5112   -5.1513    0.0000 C   0  0
   10.7979   -4.7383    0.0000 C   0  0
   10.0821   -5.1503    0.0000 C   0  0
   10.0841   -5.9796    0.0000 C   0  0
   10.7980   -6.3888    0.0000 C   0  0
   13.6455   -3.9122    0.0000 Br  0  0
  4  7  1  0
  4  5  2  0
  3 10  1  0
  2  3  2  0
  2 11  1  0
  5  6  1  0
 11 12  1  0
  6  1  2  0
 12 13  2  0
  1  2  1  0
 13 14  1  0
  3  4  1  0
 14 15  2  0
 15 16  1  0
  7  8  1  0
 16 17  2  0
 17 12  1  0
  7  9  2  0
  6 18  1  0
M  END
> <From>
www.bindingDB.org

> <BindingDB Reactant_set_id>
50395927

> <Ligand InChI>
InChI=1S/C14H11BrO3/c15-11-7-10(6-9-4-2-1-3-5-9)13(16)12(8-11)14(17)18/h1-5,7-8,16H,6H2,(H,17,18)

> <Ligand InChI Key>
WYMIFSBIOKNUSJ-UHFFFAOYSA-N

> <BindingDB MonomerID>
50219497

> <BindingDB Ligand Name>
3-benzyl-5-bromo-2-hydroxybenzoic acid::CHEMBL389855

> <Target Name Assigned by Curator or DataSource>
Protein-tyrosine phosphatase 1B (PTP1B)

> <Target Source Organism According to Curator or DataSource>
Homo sapiens

> <IC50 (nM)>
148000

> <Curation/DataSource>
ChEMBL

> <Article DOI>
10.1016/j.bmc.2007.07.010

> <PMID>
17692525

> <Authors>
Shrestha, S; Bhattarai, BR; Lee, KH; Cho, H

> <Institution>
Inha University

> <Link to Ligand in BindingDB>
http://www.bindingdb.org/bind/chemsearch/marvin/MolStructure.jsp?monomerid=50219497

> <Link to Ligand-Target Pair in BindingDB>
http://www.bindingdb.org/jsp/dbsearch/PrimarySearch_ki.jsp?energyterm=kJ/mole&tag=r21&monomerid=50219497&enzyme=Protein-tyrosine+phosphatase+1B+%28PTP1B%29&column=ki&startPg=0&Increment=50&submit=Search

> <PubChem CID>
13922432

> <PubChem SID>
104092724

> <ChEMBL ID of Ligand>
CHEMBL389855

> <ZINC ID of Ligand>
ZINC28650420

> <Number of Protein Chains in Target (>
1

> <BindingDB Target Chain Sequence>
MEMEKEFEQIDKSGSWAAIYQDIRHEASDFPCRVAKLPKNKNRNRYRDVSPFDHSRIKLHQEDNDYINASLIKMEEAQRSYILTQGPLPNTCGHFWEMVWEQKSRGVVMLNRVMEKGSLKCAQYWPQKEEKEMIFEDTNLKLTLISEDIKSYYTVRQLELENLTTQETREILHFHYTTWPDFGVPESPASFLNFLFKVRESGSLSPEHGPVVVHCSAGIGRSGTFCLADTCLLLMDKRKDPSSVDIKKVLLEMRKFRMGLIQTADQLRFSYLAVIEGAKFIMGDSSVQDQWKELSHEDLEPPPEHIPPPPRPPKRILEPHNGKCREFFPNHQWVKEETQEDKDCPIKEEKGSPLNAAPYGIESMSQDTEVRSRVVGGSLRGAQAASPAKGEPSLPEKDEDHALSYWKPFLVNMCVATVLTAGAYLCYRFLFNSNT

> <PDB ID(s) of Target Chain>
1BZJ,1G7G,1GFY,1JF7,1KAK,1KAV,1LQF,1NL9,1NNY,1NO6,1NZ7,1OEM,1OEO,1OES,1OET,1OEU,1OEV,1ONY,1ONZ,1PH0,1PXH,1PYN,1Q1M,1Q6J,1Q6M,1Q6N,1Q6P,1Q6S,1Q6T,1QXK,1SUG,1T48,1T49,1T4J,1WAX,1XBO,2AZR,2B07,2BGD,2BGE,2CM2,2CM3,2CM7,2CM8,2CMA,2CMB,2CMC,2CNE,2CNF,2CNG,2CNH,2CNI,2F6T,2F6V,2F6W,2F6Y,2F6Z,2F70,2F71,2FJN,2H4G,2H4K,2HB1,2HNP,2HNQ,2QBP,2QBQ,2QBR,2QBS,2VEU,2VEV,2VEW,2VEX,2VEY,2ZMM,2ZN7,3A5J,3CWE,3D9C,3EAX,3EB1,3EU0,3I7Z,3I80,3SME,4BJO,4I8N,4QBW,4Y14

> <UniProt (SwissProt) Recommended Name of Target Chain>
Tyrosine-protein phosphatase non-receptor type 1

> <UniProt (SwissProt) Entry Name of Target Chain>
PTN1_HUMAN

> <UniProt (SwissProt) Primary ID of Target Chain>
P18031

> <UniProt (SwissProt) Secondary ID(s) of Target Chain>
Q5TGD8,Q9BQV9,Q9NQQ4

$$$$

  SciTegic10241817252D

 23 24  0  0  0  0            999 V2000
    7.2792   -8.9417    0.0000 C   0  0
    3.0125   -8.9542    0.0000 C   0  0
    6.5750   -9.3625    0.0000 C   0  0
    3.7167   -9.3667    0.0000 C   0  0
    4.4292   -8.9542    0.0000 C   0  0
    5.8542   -8.9542    0.0000 C   0  0
    2.2917   -9.3667    0.0000 C   0  0
    8.0000   -9.3542    0.0000 C   0  0
    5.1417   -9.3667    0.0000 C   0  0
    7.2792   -8.1167    0.0000 C   0  0
    3.0042   -8.1292    0.0000 C   0  0
    4.4292   -8.1292    0.0000 C   0  0
    5.8500   -8.1292    0.0000 C   0  0
    3.7250   -7.7167    0.0000 C   0  0
    6.5542   -7.7125    0.0000 C   0  0
    8.0042  -10.1792    0.0000 O   0  0
    2.3000  -10.1917    0.0000 O   0  0
    3.7250  -10.1917    0.0000 O   0  0
    6.5750  -10.1875    0.0000 O   0  0
    8.7125   -8.9417    0.0000 O   0  0
    1.5792   -8.9625    0.0000 O   0  0
    3.7250   -6.8917    0.0000 Br  0  0
    6.5500   -6.8875    0.0000 Br  0  0
  2  4  2  0
  3  1  2  0
  4  5  1  0
  5  9  1  0
  6  3  1  0
  7  2  1  0
  8  1  1  0
  9  6  1  0
 10  1  1  0
 11 14  2  0
 12  5  2  0
 13 15  1  0
 14 12  1  0
 15 10  2  0
 16  8  2  0
 17  7  2  0
 18  4  1  0
 19  3  1  0
 20  8  1  0
 21  7  1  0
 22 14  1  0
 23 15  1  0
  6 13  2  0
  2 11  1  0
M  END
> <From>
www.bindingDB.org

> <BindingDB Reactant_set_id>
50395905

> <Ligand InChI>
InChI=1S/C15H10Br2O6/c16-8-2-6(12(18)10(4-8)14(20)21)1-7-3-9(17)5-11(13(7)19)15(22)23/h2-5,18-19H,1H2,(H,20,21)(H,22,23)

> <Ligand InChI Key>
LWQWHZWYCPLAKB-UHFFFAOYSA-N

> <BindingDB MonomerID>
50219480

> <BindingDB Ligand Name>
5,5'-dibromo-3,3'-dicarboxy-2,2'-dihydroxydiphenylmethane::5-bromo-3-(5-bromo-3-carboxy-2-hydroxybenzyl)-2-hydroxybenzoic acid::CHEMBL323654

> <Target Name Assigned by Curator or DataSource>
Protein-tyrosine phosphatase 1B (PTP1B)

> <Target Source Organism According to Curator or DataSource>
Homo sapiens

> <IC50 (nM)>
149000

> <Curation/DataSource>
ChEMBL

> <Article DOI>
10.1016/j.bmc.2007.07.010

> <PMID>
17692525

> <Authors>
Shrestha, S; Bhattarai, BR; Lee, KH; Cho, H

> <Institution>
Inha University

> <Link to Ligand in BindingDB>
http://www.bindingdb.org/bind/chemsearch/marvin/MolStructure.jsp?monomerid=50219480

> <Link to Ligand-Target Pair in BindingDB>
http://www.bindingdb.org/jsp/dbsearch/PrimarySearch_ki.jsp?energyterm=kJ/mole&tag=r21&monomerid=50219480&enzyme=Protein-tyrosine+phosphatase+1B+%28PTP1B%29&column=ki&startPg=0&Increment=50&submit=Search

> <PubChem CID>
268455

> <PubChem SID>
104092707

> <ChEMBL ID of Ligand>
CHEMBL323654

> <ZINC ID of Ligand>
ZINC01700855

> <Number of Protein Chains in Target (>
1

> <BindingDB Target Chain Sequence>
MEMEKEFEQIDKSGSWAAIYQDIRHEASDFPCRVAKLPKNKNRNRYRDVSPFDHSRIKLHQEDNDYINASLIKMEEAQRSYILTQGPLPNTCGHFWEMVWEQKSRGVVMLNRVMEKGSLKCAQYWPQKEEKEMIFEDTNLKLTLISEDIKSYYTVRQLELENLTTQETREILHFHYTTWPDFGVPESPASFLNFLFKVRESGSLSPEHGPVVVHCSAGIGRSGTFCLADTCLLLMDKRKDPSSVDIKKVLLEMRKFRMGLIQTADQLRFSYLAVIEGAKFIMGDSSVQDQWKELSHEDLEPPPEHIPPPPRPPKRILEPHNGKCREFFPNHQWVKEETQEDKDCPIKEEKGSPLNAAPYGIESMSQDTEVRSRVVGGSLRGAQAASPAKGEPSLPEKDEDHALSYWKPFLVNMCVATVLTAGAYLCYRFLFNSNT

> <PDB ID(s) of Target Chain>
1BZJ,1G7G,1GFY,1JF7,1KAK,1KAV,1LQF,1NL9,1NNY,1NO6,1NZ7,1OEM,1OEO,1OES,1OET,1OEU,1OEV,1ONY,1ONZ,1PH0,1PXH,1PYN,1Q1M,1Q6J,1Q6M,1Q6N,1Q6P,1Q6S,1Q6T,1QXK,1SUG,1T48,1T49,1T4J,1WAX,1XBO,2AZR,2B07,2BGD,2BGE,2CM2,2CM3,2CM7,2CM8,2CMA,2CMB,2CMC,2CNE,2CNF,2CNG,2CNH,2CNI,2F6T,2F6V,2F6W,2F6Y,2F6Z,2F70,2F71,2FJN,2H4G,2H4K,2HB1,2HNP,2HNQ,2QBP,2QBQ,2QBR,2QBS,2VEU,2VEV,2VEW,2VEX,2VEY,2ZMM,2ZN7,3A5J,3CWE,3D9C,3EAX,3EB1,3EU0,3I7Z,3I80,3SME,4BJO,4I8N,4QBW,4Y14

> <UniProt (SwissProt) Recommended Name of Target Chain>
Tyrosine-protein phosphatase non-receptor type 1

> <UniProt (SwissProt) Entry Name of Target Chain>
PTN1_HUMAN

> <UniProt (SwissProt) Primary ID of Target Chain>
P18031

> <UniProt (SwissProt) Secondary ID(s) of Target Chain>
Q5TGD8,Q9BQV9,Q9NQQ4

$$$$

  SciTegic10241817252D

 30 33  0  0  0  0            999 V2000
    6.0166    0.1712    0.0000 C   0  0
    6.3548    0.9269    0.0000 C   0  0
    6.6304   -0.3800    0.0000 N   0  0
    7.3444    0.0334    0.0000 N   0  0
    1.8163    1.6367    0.0000 S   0  0
    7.1773    0.8476    0.0000 C   0  0
    2.6430    1.6367    0.0000 C   0  0
    5.9415    1.6409    0.0000 N   0  0
    4.2881    1.6409    0.0000 C   0  0
    5.1148    1.6409    0.0000 N   0  0  3  0  0  0
    3.0480    2.3507    0.0000 C   0  0
    3.0563    0.9352    0.0000 C   0  0
    3.8747    0.9269    0.0000 C   0  0
    3.8747    2.3549    0.0000 C   0  0
    0.9812    1.6242    0.0000 O   0  5
    1.8079    2.4676    0.0000 O   0  0
    1.8205    0.7974    0.0000 O   0  0
    6.5427   -1.1942    0.0000 C   0  0
    5.2150    0.0000    0.0000 O   0  0
    4.2964    3.0772    0.0000 O   0  0
    7.7285    1.4613    0.0000 C   0  0
    4.2881    0.2213    0.0000 C   0  0
    2.6472    0.2213    0.0000 C   0  0
    5.7912   -1.5324    0.0000 C   0  0
    7.2149   -1.6827    0.0000 C   0  0
    3.0480   -0.4927    0.0000 C   0  0
    3.8747   -0.4927    0.0000 C   0  0
    7.1314   -2.4969    0.0000 C   0  0
    5.7035   -2.3549    0.0000 C   0  0
    6.3674   -2.8434    0.0000 C   0  0
  2  1  1  0
  3  1  1  0
  4  3  1  0
  5  7  1  0
  6  2  2  0
  7 11  1  0
  8  2  1  0
 10  9  1  4
 10  8  2  0
 11 14  2  0
 12 13  1  0
 13  9  2  0
 14  9  1  0
 15  5  1  0
 16  5  2  0
 17  5  2  0
 18  3  1  0
 19  1  2  0
 20 14  1  0
 21  6  1  0
 22 13  1  0
 23 12  1  0
 24 18  2  0
 25 18  1  0
 26 27  1  0
 27 22  2  0
 28 25  2  0
 29 24  1  0
 30 29  2  0
  4  6  1  0
 28 30  1  0
  7 12  2  0
 23 26  2  0
M  CHG  1  15  -1
M  END
> <From>
www.bindingDB.org

> <BindingDB Reactant_set_id>
50742419

> <Ligand InChI>
InChI=1S/C20H16N4O5S/c1-12-18(20(26)24(23-12)13-7-3-2-4-8-13)21-22-19-15-10-6-5-9-14(15)17(11-16(19)25)30(27,28)29/h2-11,23,25H,1H3,(H,27,28,29)/p-1

> <Ligand InChI Key>
XZXCWRSZJMLMQQ-UHFFFAOYSA-M

> <BindingDB MonomerID>
50143420

> <BindingDB Ligand Name>
CHEMBL435338::Sodium; 3-hydroxy-4-(5-hydroxy-3-methyl-1-phenyl-1H-pyrazol-4-ylazo)-naphthalene-1-sulfonate

> <Target Name Assigned by Curator or DataSource>
Protein-tyrosine phosphatase 1B (PTP1B)

> <Target Source Organism According to Curator or DataSource>
Homo sapiens

> <IC50 (nM)>
150000

> <Curation/DataSource>
ChEMBL

> <Article DOI>
10.1016/j.bmcl.2004.01.079

> <PMID>
15050628

> <Authors>
Shrestha, S; Shim, YS; Kim, KC; Lee, KH; Cho, H

> <Institution>
Inha University

> <Link to Ligand in BindingDB>
http://www.bindingdb.org/bind/chemsearch/marvin/MolStructure.jsp?monomerid=50143420

> <Link to Ligand-Target Pair in BindingDB>
http://www.bindingdb.org/jsp/dbsearch/PrimarySearch_ki.jsp?energyterm=kJ/mole&tag=r21&monomerid=50143420&enzyme=Protein-tyrosine+phosphatase+1B+%28PTP1B%29&column=ki&startPg=0&Increment=50&submit=Search

> <PubChem CID>
6848866

> <PubChem SID>
104032614

> <ChEMBL ID of Ligand>
CHEMBL435338

> <ZINC ID of Ligand>
ZINC13864591

> <Number of Protein Chains in Target (>
1

> <BindingDB Target Chain Sequence>
MEMEKEFEQIDKSGSWAAIYQDIRHEASDFPCRVAKLPKNKNRNRYRDVSPFDHSRIKLHQEDNDYINASLIKMEEAQRSYILTQGPLPNTCGHFWEMVWEQKSRGVVMLNRVMEKGSLKCAQYWPQKEEKEMIFEDTNLKLTLISEDIKSYYTVRQLELENLTTQETREILHFHYTTWPDFGVPESPASFLNFLFKVRESGSLSPEHGPVVVHCSAGIGRSGTFCLADTCLLLMDKRKDPSSVDIKKVLLEMRKFRMGLIQTADQLRFSYLAVIEGAKFIMGDSSVQDQWKELSHEDLEPPPEHIPPPPRPPKRILEPHNGKCREFFPNHQWVKEETQEDKDCPIKEEKGSPLNAAPYGIESMSQDTEVRSRVVGGSLRGAQAASPAKGEPSLPEKDEDHALSYWKPFLVNMCVATVLTAGAYLCYRFLFNSNT

> <PDB ID(s) of Target Chain>
1BZJ,1G7G,1GFY,1JF7,1KAK,1KAV,1LQF,1NL9,1NNY,1NO6,1NZ7,1OEM,1OEO,1OES,1OET,1OEU,1OEV,1ONY,1ONZ,1PH0,1PXH,1PYN,1Q1M,1Q6J,1Q6M,1Q6N,1Q6P,1Q6S,1Q6T,1QXK,1SUG,1T48,1T49,1T4J,1WAX,1XBO,2AZR,2B07,2BGD,2BGE,2CM2,2CM3,2CM7,2CM8,2CMA,2CMB,2CMC,2CNE,2CNF,2CNG,2CNH,2CNI,2F6T,2F6V,2F6W,2F6Y,2F6Z,2F70,2F71,2FJN,2H4G,2H4K,2HB1,2HNP,2HNQ,2QBP,2QBQ,2QBR,2QBS,2VEU,2VEV,2VEW,2VEX,2VEY,2ZMM,2ZN7,3A5J,3CWE,3D9C,3EAX,3EB1,3EU0,3I7Z,3I80,3SME,4BJO,4I8N,4QBW,4Y14

> <UniProt (SwissProt) Recommended Name of Target Chain>
Tyrosine-protein phosphatase non-receptor type 1

> <UniProt (SwissProt) Entry Name of Target Chain>
PTN1_HUMAN

> <UniProt (SwissProt) Primary ID of Target Chain>
P18031

> <UniProt (SwissProt) Secondary ID(s) of Target Chain>
Q5TGD8,Q9BQV9,Q9NQQ4

$$$$

  SciTegic10241817252D

 24 27  0  0  0  0            999 V2000
   -3.0459   -6.7586    0.0000 C   0  0
   -2.3316   -7.1715    0.0000 C   0  0
   -1.6156   -6.7581    0.0000 C   0  0
   -1.6183   -5.9279    0.0000 C   0  0
   -3.0449   -5.9313    0.0000 C   0  0
   -2.3351   -5.5200    0.0000 C   0  0
   -2.5069   -4.7178    0.0000 C   0  0
   -3.3229   -4.6332    0.0000 C   0  0
   -3.6552   -5.3833    0.0000 O   0  0
   -0.9057   -5.5120    0.0000 O   0  0
   -0.1892   -5.9211    0.0000 C   0  0
   -0.9005   -7.1695    0.0000 C   0  0
   -0.8171   -7.9873    0.0000 N   0  0
   -0.0097   -8.1576    0.0000 O   0  0
    0.4017   -7.4424    0.0000 C   0  0
   -0.1514   -6.8301    0.0000 C   0  0
    1.2221   -7.3547    0.0000 C   0  0
    1.7047   -8.0214    0.0000 C   0  0
    2.5245   -7.9343    0.0000 C   0  0
    2.8596   -7.1793    0.0000 C   0  0
    2.3688   -6.5108    0.0000 C   0  0
    1.5508   -6.6013    0.0000 C   0  0
    3.6798   -7.0906    0.0000 O   0  0
    4.1669   -7.7566    0.0000 C   0  0
  1  2  1  0
  3 12  1  0
 12 13  2  0
  5  1  2  0
  2  3  2  0
  3  4  1  0
 13 14  1  0
 14 15  1  0
 15 16  1  0
 16 12  1  0
  6  7  1  0
 15 17  1  0
  7  8  2  0
 17 18  2  0
  8  9  1  0
 18 19  1  0
  9  5  1  0
 19 20  2  0
  4  6  2  0
 20 21  1  0
  4 10  1  0
 21 22  2  0
 22 17  1  0
  5  6  1  0
 20 23  1  0
 10 11  1  0
 23 24  1  0
M  END
> <From>
www.bindingDB.org

> <BindingDB Reactant_set_id>
50337510

> <Ligand InChI>
InChI=1S/C19H17NO4/c1-21-13-5-3-12(4-6-13)18-11-16(20-24-18)14-7-8-17-15(9-10-23-17)19(14)22-2/h3-10,18H,11H2,1-2H3

> <Ligand InChI Key>
DKHOBSRJLBAKFY-UHFFFAOYSA-N

> <BindingDB MonomerID>
50182133

> <BindingDB Ligand Name>
3-(4-methoxybenzofuran-5-yl)-5-(4-methoxyphenyl)-4,5-dihydroisoxazole::CHEMBL208486

> <Target Name Assigned by Curator or DataSource>
Protein-tyrosine phosphatase 1B (PTP1B)

> <Target Source Organism According to Curator or DataSource>
Homo sapiens

> <IC50 (nM)>
150000

> <Curation/DataSource>
ChEMBL

> <Article DOI>
10.1016/j.bmcl.2006.01.062

> <PMID>
16460930

> <Authors>
Ahmad, G; Mishra, PK; Gupta, P; Yadav, PP; Tiwari, P; Tamrakar, AK; Srivastava, AK; Maurya, R

> <Institution>
Central Drug Research Institute

> <Link to Ligand in BindingDB>
http://www.bindingdb.org/bind/chemsearch/marvin/MolStructure.jsp?monomerid=50182133

> <Link to Ligand-Target Pair in BindingDB>
http://www.bindingdb.org/jsp/dbsearch/PrimarySearch_ki.jsp?energyterm=kJ/mole&tag=r21&monomerid=50182133&enzyme=Protein-tyrosine+phosphatase+1B+%28PTP1B%29&column=ki&startPg=0&Increment=50&submit=Search

> <PubChem CID>
44410095

> <PubChem SID>
104066923

> <ChEMBL ID of Ligand>
CHEMBL208486

> <ZINC ID of Ligand>
ZINC40565031

> <Number of Protein Chains in Target (>
1

> <BindingDB Target Chain Sequence>
MEMEKEFEQIDKSGSWAAIYQDIRHEASDFPCRVAKLPKNKNRNRYRDVSPFDHSRIKLHQEDNDYINASLIKMEEAQRSYILTQGPLPNTCGHFWEMVWEQKSRGVVMLNRVMEKGSLKCAQYWPQKEEKEMIFEDTNLKLTLISEDIKSYYTVRQLELENLTTQETREILHFHYTTWPDFGVPESPASFLNFLFKVRESGSLSPEHGPVVVHCSAGIGRSGTFCLADTCLLLMDKRKDPSSVDIKKVLLEMRKFRMGLIQTADQLRFSYLAVIEGAKFIMGDSSVQDQWKELSHEDLEPPPEHIPPPPRPPKRILEPHNGKCREFFPNHQWVKEETQEDKDCPIKEEKGSPLNAAPYGIESMSQDTEVRSRVVGGSLRGAQAASPAKGEPSLPEKDEDHALSYWKPFLVNMCVATVLTAGAYLCYRFLFNSNT

> <PDB ID(s) of Target Chain>
1BZJ,1G7G,1GFY,1JF7,1KAK,1KAV,1LQF,1NL9,1NNY,1NO6,1NZ7,1OEM,1OEO,1OES,1OET,1OEU,1OEV,1ONY,1ONZ,1PH0,1PXH,1PYN,1Q1M,1Q6J,1Q6M,1Q6N,1Q6P,1Q6S,1Q6T,1QXK,1SUG,1T48,1T49,1T4J,1WAX,1XBO,2AZR,2B07,2BGD,2BGE,2CM2,2CM3,2CM7,2CM8,2CMA,2CMB,2CMC,2CNE,2CNF,2CNG,2CNH,2CNI,2F6T,2F6V,2F6W,2F6Y,2F6Z,2F70,2F71,2FJN,2H4G,2H4K,2HB1,2HNP,2HNQ,2QBP,2QBQ,2QBR,2QBS,2VEU,2VEV,2VEW,2VEX,2VEY,2ZMM,2ZN7,3A5J,3CWE,3D9C,3EAX,3EB1,3EU0,3I7Z,3I80,3SME,4BJO,4I8N,4QBW,4Y14

> <UniProt (SwissProt) Recommended Name of Target Chain>
Tyrosine-protein phosphatase non-receptor type 1

> <UniProt (SwissProt) Entry Name of Target Chain>
PTN1_HUMAN

> <UniProt (SwissProt) Primary ID of Target Chain>
P18031

> <UniProt (SwissProt) Secondary ID(s) of Target Chain>
Q5TGD8,Q9BQV9,Q9NQQ4

$$$$

  SciTegic10241817252D

 39 42  0  0  0  0            999 V2000
   11.7872  -16.6249    0.0000 C   0  0
   11.7861  -17.4523    0.0000 C   0  0
   12.5009  -17.8649    0.0000 C   0  0
   13.2170  -17.4518    0.0000 C   0  0
   13.2142  -16.6213    0.0000 C   0  0
   12.4991  -16.2125    0.0000 C   0  0
   13.9271  -16.2064    0.0000 C   0  0
   13.9240  -15.3814    0.0000 N   0  0
   14.6366  -14.9665    0.0000 C   0  0
   13.2080  -14.9719    0.0000 S   0  0
   12.4887  -14.5589    0.0000 C   0  0
   12.7980  -15.6874    0.0000 O   0  0
   13.6223  -14.2585    0.0000 O   0  0
   12.4893  -13.7284    0.0000 C   0  0
   11.7706  -13.3155    0.0000 C   0  0
   11.0524  -13.7322    0.0000 C   0  0
   11.0572  -14.5659    0.0000 C   0  0
   11.7763  -14.9751    0.0000 C   0  0
   11.0716  -17.8639    0.0000 C   0  0
   10.3170  -17.5295    0.0000 C   0  0
    9.7645  -18.1419    0.0000 S   0  0
   10.1765  -18.8568    0.0000 N   0  0
   10.9832  -18.6857    0.0000 N   0  0
   15.3523  -15.3760    0.0000 C   0  0
   15.3506  -16.2014    0.0000 C   0  0
   16.0658  -16.6108    0.0000 C   0  0
   16.7794  -16.1958    0.0000 C   0  0
   16.7736  -15.3666    0.0000 C   0  0
   16.0582  -14.9609    0.0000 C   0  0
   10.3367  -13.3225    0.0000 O   0  0
    9.6238  -13.7378    0.0000 C   0  0
    8.9080  -13.3281    0.0000 C   0  0
    8.9062  -12.5006    0.0000 O   0  0
    8.1965  -13.7405    0.0000 O   0  0
   17.4959  -16.6044    0.0000 C   0  0  3  0  0  0
   17.5001  -17.4294    0.0000 C   0  0
   18.2080  -16.1886    0.0000 C   0  0
   18.9252  -16.5945    0.0000 O   0  0
   18.2044  -15.3610    0.0000 O   0  0
  2 19  1  0
 19 20  2  0
  4  5  2  0
  8 10  1  0
  2  3  2  0
 10 11  1  0
 20 21  1  0
 21 22  1  0
 22 23  2  0
 23 19  1  0
  5  6  1  0
  9 24  1  0
 10 12  2  0
 24 25  2  0
  6  1  2  0
 25 26  1  0
 10 13  2  0
 26 27  2  0
  1  2  1  0
 27 28  1  0
 11 14  2  0
 28 29  2  0
 29 24  1  0
  5  7  1  0
 16 30  1  0
 14 15  1  0
 30 31  1  0
  3  4  1  0
 31 32  1  0
 15 16  2  0
  7  8  1  0
 32 33  1  0
 32 34  2  0
 16 17  1  0
 27 35  1  0
 35 36  1  4
 17 18  2  0
 35 37  1  0
 18 11  1  0
  8  9  1  0
 37 38  1  0
 37 39  2  0
M  END
> <From>
www.bindingDB.org

> <BindingDB Reactant_set_id>
50867344

> <Ligand InChI>
InChI=1S/C27H25N3O7S2/c1-18(27(33)34)21-6-2-19(3-7-21)14-30(15-20-4-8-22(9-5-20)25-17-38-29-28-25)39(35,36)24-12-10-23(11-13-24)37-16-26(31)32/h2-13,17-18H,14-16H2,1H3,(H,31,32)(H,33,34)

> <Ligand InChI Key>
WYKMXPHUERDQRB-UHFFFAOYSA-N

> <BindingDB MonomerID>
50376628

> <BindingDB Ligand Name>
CHEMBL260924

> <Target Name Assigned by Curator or DataSource>
Protein-tyrosine phosphatase 1B (PTP1B)

> <Target Source Organism According to Curator or DataSource>
Homo sapiens

> <IC50 (nM)>
153000

> <Curation/DataSource>
ChEMBL

> <Article DOI>
10.1016/j.bmcl.2008.03.007

> <PMID>
18372175

> <Authors>
Holmes, CP; Li, X; Pan, Y; Xu, C; Bhandari, A; Moody, CM; Miguel, JA; Ferla, SW; De Francisco, MN; Frederick, BT; Zhou, S; Macher, N; Jang, L; Irvine, JD; Grove, JR

> <Institution>
Affymax, Inc.

> <Link to Ligand in BindingDB>
http://www.bindingdb.org/bind/chemsearch/marvin/MolStructure.jsp?monomerid=50376628

> <Link to Ligand-Target Pair in BindingDB>
http://www.bindingdb.org/jsp/dbsearch/PrimarySearch_ki.jsp?energyterm=kJ/mole&tag=r21&monomerid=50376628&enzyme=Protein-tyrosine+phosphatase+1B+%28PTP1B%29&column=ki&startPg=0&Increment=50&submit=Search

> <PubChem CID>
44450308

> <PubChem SID>
160855711

> <ChEMBL ID of Ligand>
CHEMBL260924

> <ZINC ID of Ligand>
ZINC29051725

> <Number of Protein Chains in Target (>
1

> <BindingDB Target Chain Sequence>
MEMEKEFEQIDKSGSWAAIYQDIRHEASDFPCRVAKLPKNKNRNRYRDVSPFDHSRIKLHQEDNDYINASLIKMEEAQRSYILTQGPLPNTCGHFWEMVWEQKSRGVVMLNRVMEKGSLKCAQYWPQKEEKEMIFEDTNLKLTLISEDIKSYYTVRQLELENLTTQETREILHFHYTTWPDFGVPESPASFLNFLFKVRESGSLSPEHGPVVVHCSAGIGRSGTFCLADTCLLLMDKRKDPSSVDIKKVLLEMRKFRMGLIQTADQLRFSYLAVIEGAKFIMGDSSVQDQWKELSHEDLEPPPEHIPPPPRPPKRILEPHNGKCREFFPNHQWVKEETQEDKDCPIKEEKGSPLNAAPYGIESMSQDTEVRSRVVGGSLRGAQAASPAKGEPSLPEKDEDHALSYWKPFLVNMCVATVLTAGAYLCYRFLFNSNT

> <PDB ID(s) of Target Chain>
1BZJ,1G7G,1GFY,1JF7,1KAK,1KAV,1LQF,1NL9,1NNY,1NO6,1NZ7,1OEM,1OEO,1OES,1OET,1OEU,1OEV,1ONY,1ONZ,1PH0,1PXH,1PYN,1Q1M,1Q6J,1Q6M,1Q6N,1Q6P,1Q6S,1Q6T,1QXK,1SUG,1T48,1T49,1T4J,1WAX,1XBO,2AZR,2B07,2BGD,2BGE,2CM2,2CM3,2CM7,2CM8,2CMA,2CMB,2CMC,2CNE,2CNF,2CNG,2CNH,2CNI,2F6T,2F6V,2F6W,2F6Y,2F6Z,2F70,2F71,2FJN,2H4G,2H4K,2HB1,2HNP,2HNQ,2QBP,2QBQ,2QBR,2QBS,2VEU,2VEV,2VEW,2VEX,2VEY,2ZMM,2ZN7,3A5J,3CWE,3D9C,3EAX,3EB1,3EU0,3I7Z,3I80,3SME,4BJO,4I8N,4QBW,4Y14

> <UniProt (SwissProt) Recommended Name of Target Chain>
Tyrosine-protein phosphatase non-receptor type 1

> <UniProt (SwissProt) Entry Name of Target Chain>
PTN1_HUMAN

> <UniProt (SwissProt) Primary ID of Target Chain>
P18031

> <UniProt (SwissProt) Secondary ID(s) of Target Chain>
Q5TGD8,Q9BQV9,Q9NQQ4

$$$$

  SciTegic10241817252D

 18 19  0  0  0  0            999 V2000
   -4.0181  -12.3541    0.0000 C   0  0
   -4.0193  -13.1815    0.0000 C   0  0
   -3.3044  -13.5944    0.0000 C   0  0
   -2.5880  -13.1810    0.0000 C   0  0
   -2.5909  -12.3505    0.0000 C   0  0
   -3.3062  -11.9414    0.0000 C   0  0
   -1.8718  -13.5924    0.0000 C   0  0
   -1.8705  -14.4174    0.0000 O   0  0
   -1.1580  -13.1788    0.0000 O   0  0
   -3.3046  -14.4194    0.0000 O   0  0
   -3.3087  -11.1164    0.0000 C   0  0
   -2.5955  -10.7017    0.0000 C   0  0
   -1.8819  -11.1145    0.0000 C   0  0
   -1.1692  -10.7006    0.0000 C   0  0
   -1.1712   -9.8747    0.0000 C   0  0
   -1.8919   -9.4645    0.0000 C   0  0
   -2.6017   -9.8808    0.0000 C   0  0
   -4.7341  -13.5934    0.0000 Br  0  0
  4  7  1  0
  4  5  2  0
  3 10  1  0
  2  3  2  0
  6 11  1  0
  5  6  1  0
 11 12  1  0
  6  1  2  0
 12 13  2  0
  1  2  1  0
 13 14  1  0
  3  4  1  0
 14 15  2  0
 15 16  1  0
  7  8  1  0
 16 17  2  0
 17 12  1  0
  7  9  2  0
  2 18  1  0
M  END
> <From>
www.bindingDB.org

> <BindingDB Reactant_set_id>
50395915

> <Ligand InChI>
InChI=1S/C14H11BrO3/c15-12-8-10(6-9-4-2-1-3-5-9)7-11(13(12)16)14(17)18/h1-5,7-8,16H,6H2,(H,17,18)

> <Ligand InChI Key>
YAUHZACDUFGIHL-UHFFFAOYSA-N

> <BindingDB MonomerID>
50219491

> <BindingDB Ligand Name>
5-benzyl-3-Bromo-2-hydroxybenzoic acid::CHEMBL229470

> <Target Name Assigned by Curator or DataSource>
Protein-tyrosine phosphatase 1B (PTP1B)

> <Target Source Organism According to Curator or DataSource>
Homo sapiens

> <IC50 (nM)>
153000

> <Curation/DataSource>
ChEMBL

> <Article DOI>
10.1016/j.bmc.2007.07.010

> <PMID>
17692525

> <Authors>
Shrestha, S; Bhattarai, BR; Lee, KH; Cho, H

> <Institution>
Inha University

> <Link to Ligand in BindingDB>
http://www.bindingdb.org/bind/chemsearch/marvin/MolStructure.jsp?monomerid=50219491

> <Link to Ligand-Target Pair in BindingDB>
http://www.bindingdb.org/jsp/dbsearch/PrimarySearch_ki.jsp?energyterm=kJ/mole&tag=r21&monomerid=50219491&enzyme=Protein-tyrosine+phosphatase+1B+%28PTP1B%29&column=ki&startPg=0&Increment=50&submit=Search

> <PubChem CID>
25101398

> <PubChem SID>
104092718

> <ChEMBL ID of Ligand>
CHEMBL229470

> <ZINC ID of Ligand>
ZINC28650425

> <Number of Protein Chains in Target (>
1

> <BindingDB Target Chain Sequence>
MEMEKEFEQIDKSGSWAAIYQDIRHEASDFPCRVAKLPKNKNRNRYRDVSPFDHSRIKLHQEDNDYINASLIKMEEAQRSYILTQGPLPNTCGHFWEMVWEQKSRGVVMLNRVMEKGSLKCAQYWPQKEEKEMIFEDTNLKLTLISEDIKSYYTVRQLELENLTTQETREILHFHYTTWPDFGVPESPASFLNFLFKVRESGSLSPEHGPVVVHCSAGIGRSGTFCLADTCLLLMDKRKDPSSVDIKKVLLEMRKFRMGLIQTADQLRFSYLAVIEGAKFIMGDSSVQDQWKELSHEDLEPPPEHIPPPPRPPKRILEPHNGKCREFFPNHQWVKEETQEDKDCPIKEEKGSPLNAAPYGIESMSQDTEVRSRVVGGSLRGAQAASPAKGEPSLPEKDEDHALSYWKPFLVNMCVATVLTAGAYLCYRFLFNSNT

> <PDB ID(s) of Target Chain>
1BZJ,1G7G,1GFY,1JF7,1KAK,1KAV,1LQF,1NL9,1NNY,1NO6,1NZ7,1OEM,1OEO,1OES,1OET,1OEU,1OEV,1ONY,1ONZ,1PH0,1PXH,1PYN,1Q1M,1Q6J,1Q6M,1Q6N,1Q6P,1Q6S,1Q6T,1QXK,1SUG,1T48,1T49,1T4J,1WAX,1XBO,2AZR,2B07,2BGD,2BGE,2CM2,2CM3,2CM7,2CM8,2CMA,2CMB,2CMC,2CNE,2CNF,2CNG,2CNH,2CNI,2F6T,2F6V,2F6W,2F6Y,2F6Z,2F70,2F71,2FJN,2H4G,2H4K,2HB1,2HNP,2HNQ,2QBP,2QBQ,2QBR,2QBS,2VEU,2VEV,2VEW,2VEX,2VEY,2ZMM,2ZN7,3A5J,3CWE,3D9C,3EAX,3EB1,3EU0,3I7Z,3I80,3SME,4BJO,4I8N,4QBW,4Y14

> <UniProt (SwissProt) Recommended Name of Target Chain>
Tyrosine-protein phosphatase non-receptor type 1

> <UniProt (SwissProt) Entry Name of Target Chain>
PTN1_HUMAN

> <UniProt (SwissProt) Primary ID of Target Chain>
P18031

> <UniProt (SwissProt) Secondary ID(s) of Target Chain>
Q5TGD8,Q9BQV9,Q9NQQ4

$$$$
10c
  SciTegic10241817252D

 25 27  0  0  0  0            999 V2000
   -2.5000    2.5750    0.0000 C   0  0
   -3.2145    2.1625    0.0000 C   0  0
   -3.2145    1.3375    0.0000 C   0  0
   -2.5000    0.9250    0.0000 C   0  0
   -1.7855    2.1625    0.0000 C   0  0
   -1.7855    1.3375    0.0000 C   0  0
   -1.0009    2.4175    0.0000 C   0  0
   -0.5160    1.7500    0.0000 C   0  0
   -1.0009    1.0826    0.0000 N   0  0
    0.3090    1.7500    0.0000 O   0  0
   -0.7460    3.2021    0.0000 N   0  0  3  0  0  0
    0.0790    3.2021    0.0000 N   0  0
    0.2925    3.9990    0.0000 C   0  0
    0.2537    5.4274    0.0000 C   0  0
   -0.1392    4.7020    0.0000 C   0  0
    1.1172    4.0214    0.0000 C   0  0
    1.5102    4.7468    0.0000 C   0  0
    1.0784    5.4498    0.0000 C   0  0
   -3.9289    2.5750    0.0000 S   0  0
   -3.5164    3.2895    0.0000 O   0  0
   -4.3414    1.8605    0.0000 O   0  0
   -4.5123    3.1584    0.0000 N   0  0
    1.5490    3.3184    0.0000 N   0  3
    1.1560    2.5929    0.0000 O   0  0
    2.3737    3.3408    0.0000 O   0  5
  1  2  2  0
  1  5  1  0
  2  3  1  0
  3  4  2  0
  4  6  1  0
  7  5  1  0
  5  6  2  0
  6  9  1  0
  7  8  1  0
  9  8  1  0
  8 10  2  0
  7 11  2  0
 11 12  1  4
 12 13  1  0
 15 13  2  0
 13 16  1  0
 14 15  1  0
 14 18  2  0
 16 17  2  0
 17 18  1  0
  2 19  1  0
 19 22  1  0
 19 21  2  0
 19 20  2  0
 16 23  1  0
 23 25  1  0
 23 24  2  0
M  CHG  2  23   1  25  -1
M  END
> <Name>
10c

> <From>
www.bindingDB.org

> <BindingDB Reactant_set_id>
44523

> <Ligand InChI>
InChI=1S/C14H11N5O5S/c15-25(23,24)8-5-6-10-9(7-8)13(14(20)16-10)18-17-11-3-1-2-4-12(11)19(21)22/h1-7,17H,(H2,15,23,24)(H,16,18,20)

> <Ligand InChI Key>
DVBRTLAFUYOZLB-UHFFFAOYSA-N

> <BindingDB MonomerID>
24538

> <BindingDB Ligand Name>
(3Z)-3-[2-(2-nitrophenyl)hydrazin-1-ylidene]-2-oxo-2,3-dihydro-1H-indole-5-sulfonamide::Oxindole scaffold, 10c

> <Target Name Assigned by Curator or DataSource>
Protein-tyrosine phosphatase 1B

> <Target Source Organism According to Curator or DataSource>
Homo sapiens

> <IC50 (nM)>
156600

> <Curation/DataSource>
Curated from the literature by BindingDB

> <Article DOI>
10.1021/jm8002526

> <PMID>
18680359

> <Authors>
Lawrence, HR; Pireddu, R; Chen, L; Luo, Y; Sung, SS; Szymanski, AM; Yip, ML; Guida, WC; Sebti, SM; Wu, J; Lawrence, NJ

> <Institution>
Moffitt Cancer Center

> <Link to Ligand in BindingDB>
http://www.bindingdb.org/bind/chemsearch/marvin/MolStructure.jsp?monomerid=24538

> <Link to Ligand-Target Pair in BindingDB>
http://www.bindingdb.org/jsp/dbsearch/PrimarySearch_ki.jsp?energyterm=kJ/mole&tag=r21&monomerid=24538&enzyme=Protein-tyrosine+phosphatase+1B&column=ki&startPg=0&Increment=50&submit=Search

> <PubChem CID>
24971255

> <PubChem SID>
56269489

> <ZINC ID of Ligand>
ZINC40834621

> <Number of Protein Chains in Target (>
1

> <BindingDB Target Chain Sequence>
MEMEKEFEQIDKSGSWAAIYQDIRHEASDFPCRVAKLPKNKNRNRYRDVSPFDHSRIKLHQEDNDYINASLIKMEEAQRSYILTQGPLPNTCGHFWEMVWEQKSRGVVMLNRVMEKGSLKCAQYWPQKEEKEMIFEDTNLKLTLISEDIKSYYTVRQLELENLTTQETREILHFHYTTWPDFGVPESPASFLNFLFKVRESGSLSPEHGPVVVHCSAGIGRSGTFCLADTCLLLMDKRKDPSSVDIKKVLLEMRKFRMGLIQTADQLRFSYLAVIEGAKFIMGDSSVQDQWKELSHEDLEPPPEHIPPPPRPPKRILEPHNGKCREFFPNHQWVKEETQEDKDCPIKEEKGSPLNAAPYGIESMSQDTEVRSRVVGGSLRGAQAASPAKGEPSLPEKDEDHALSYWKPFLVNMCVATVLTAGAYLCYRFLFNSNT

> <PDB ID(s) of Target Chain>
1BZJ,1G7G,1GFY,1JF7,1KAK,1KAV,1LQF,1NL9,1NNY,1NO6,1NZ7,1OEM,1OEO,1OES,1OET,1OEU,1OEV,1ONY,1ONZ,1PH0,1PXH,1PYN,1Q1M,1Q6J,1Q6M,1Q6N,1Q6P,1Q6S,1Q6T,1QXK,1SUG,1T48,1T49,1T4J,1WAX,1XBO,2AZR,2B07,2BGD,2BGE,2CM2,2CM3,2CM7,2CM8,2CMA,2CMB,2CMC,2CNE,2CNF,2CNG,2CNH,2CNI,2F6T,2F6V,2F6W,2F6Y,2F6Z,2F70,2F71,2FJN,2H4G,2H4K,2HB1,2HNP,2HNQ,2QBP,2QBQ,2QBR,2QBS,2VEU,2VEV,2VEW,2VEX,2VEY,2ZMM,2ZN7,3A5J,3CWE,3D9C,3EAX,3EB1,3EU0,3I7Z,3I80,3SME,4BJO,4I8N,4QBW,4Y14,5K9V,5K9W,5KA0,5KA1,5T19,6B90

> <UniProt (SwissProt) Recommended Name of Target Chain>
Tyrosine-protein phosphatase non-receptor type 1

> <UniProt (SwissProt) Entry Name of Target Chain>
PTN1_HUMAN

> <UniProt (SwissProt) Primary ID of Target Chain>
P18031

> <UniProt (SwissProt) Secondary ID(s) of Target Chain>
Q5TGD8,Q9BQV9,Q9NQQ4

$$$$
 
  SciTegic10241817252D

 21 23  0  0  0  0            999 V2000
    4.0969  -14.7507    0.0000 C   0  0
    4.0957  -15.5787    0.0000 C   0  0
    4.8111  -15.9918    0.0000 C   0  0
    5.5279  -15.5782    0.0000 C   0  0
    5.5250  -14.7471    0.0000 C   0  0
    4.8093  -14.3378    0.0000 C   0  0
    6.2385  -14.3317    0.0000 C   0  0
    6.9549  -14.7417    0.0000 C   0  0
    6.2353  -13.5062    0.0000 O   0  0
    7.6683  -14.3263    0.0000 C   0  0
    8.3847  -14.7363    0.0000 C   0  0
    8.3847  -15.5607    0.0000 C   0  0
    9.1003  -15.9707    0.0000 C   0  0
    9.8147  -15.5552    0.0000 C   0  0
    9.0926  -14.3192    0.0000 C   0  0
    9.8070  -14.7257    0.0000 C   0  0
   10.5141  -14.3105    0.0000 C   0  0
   10.5081  -13.4889    0.0000 C   0  0
    9.7892  -13.0842    0.0000 C   0  0
    9.0849  -13.5018    0.0000 C   0  0
    4.8068  -13.5123    0.0000 O   0  0
  2  3  2  0
 10 11  1  0
  5  6  1  0
 11 12  1  0
  6  1  2  0
 12 13  2  0
  1  2  1  0
 13 14  1  0
 14 16  2  0
 15 11  2  0
  5  7  1  0
  3  4  1  0
 15 16  1  0
  7  8  1  0
 16 17  1  0
 17 18  2  0
  7  9  2  0
 18 19  1  0
  4  5  2  0
 19 20  2  0
 20 15  1  0
  8 10  2  0
  6 21  1  0
M  END
> <Name>
 

> <From>
www.bindingDB.org

> <BindingDB Reactant_set_id>
50913903

> <Ligand InChI>
InChI=1S/C19H14O2/c20-18-11-4-3-10-17(18)19(21)13-12-15-8-5-7-14-6-1-2-9-16(14)15/h1-13,20H/b13-12+

> <Ligand InChI Key>
KRWCRUXGJDMVIY-OUKQBFOZSA-N

> <BindingDB MonomerID>
50246224

> <BindingDB Ligand Name>
(2E)-1-(2'-Hydroxyphenyl)-3-(1-naphtyl)-2-propen-1-one::(2E)-1-(2'-hydroxyphenyl)-3-(1-naphthyl)-2-propen-1-one::1-(2'-hydroxyphenyl)-3-(1-naphthyl)-2-propen-1-one::CHEMBL487051

> <Target Name Assigned by Curator or DataSource>
Protein-tyrosine phosphatase 1B (PTP1B)

> <Target Source Organism According to Curator or DataSource>
Homo sapiens

> <IC50 (nM)>
158490

> <Curation/DataSource>
ChEMBL

> <Article DOI>
10.1016/j.bmc.2010.04.051

> <PMID>
20462762

> <Authors>
Mascarello, A; Chiaradia, LD; Vernal, J; Villarino, A; Guido, RV; Perizzolo, P; Poirier, V; Wong, D; Martins, PG; Nunes, RJ; Yunes, RA; Andricopulo, AD; Av-Gay, Y; Terenzi, H

> <Institution>
Universidade Federal de Santa Catarina

> <Link to Ligand in BindingDB>
http://www.bindingdb.org/bind/chemsearch/marvin/MolStructure.jsp?monomerid=50246224

> <Link to Ligand-Target Pair in BindingDB>
http://www.bindingdb.org/jsp/dbsearch/PrimarySearch_ki.jsp?energyterm=kJ/mole&tag=r21&monomerid=50246224&enzyme=Protein-tyrosine+phosphatase+1B+%28PTP1B%29&column=ki&startPg=0&Increment=50&submit=Search

> <PubChem CID>
7729033

> <PubChem SID>
104101696

> <ChEMBL ID of Ligand>
CHEMBL487051

> <ZINC ID of Ligand>
ZINC05549057

> <Number of Protein Chains in Target (>
1

> <BindingDB Target Chain Sequence>
MEMEKEFEQIDKSGSWAAIYQDIRHEASDFPCRVAKLPKNKNRNRYRDVSPFDHSRIKLHQEDNDYINASLIKMEEAQRSYILTQGPLPNTCGHFWEMVWEQKSRGVVMLNRVMEKGSLKCAQYWPQKEEKEMIFEDTNLKLTLISEDIKSYYTVRQLELENLTTQETREILHFHYTTWPDFGVPESPASFLNFLFKVRESGSLSPEHGPVVVHCSAGIGRSGTFCLADTCLLLMDKRKDPSSVDIKKVLLEMRKFRMGLIQTADQLRFSYLAVIEGAKFIMGDSSVQDQWKELSHEDLEPPPEHIPPPPRPPKRILEPHNGKCREFFPNHQWVKEETQEDKDCPIKEEKGSPLNAAPYGIESMSQDTEVRSRVVGGSLRGAQAASPAKGEPSLPEKDEDHALSYWKPFLVNMCVATVLTAGAYLCYRFLFNSNT

> <PDB ID(s) of Target Chain>
1BZJ,1G7G,1GFY,1JF7,1KAK,1KAV,1LQF,1NL9,1NNY,1NO6,1NZ7,1OEM,1OEO,1OES,1OET,1OEU,1OEV,1ONY,1ONZ,1PH0,1PXH,1PYN,1Q1M,1Q6J,1Q6M,1Q6N,1Q6P,1Q6S,1Q6T,1QXK,1SUG,1T48,1T49,1T4J,1WAX,1XBO,2AZR,2B07,2BGD,2BGE,2CM2,2CM3,2CM7,2CM8,2CMA,2CMB,2CMC,2CNE,2CNF,2CNG,2CNH,2CNI,2F6T,2F6V,2F6W,2F6Y,2F6Z,2F70,2F71,2FJN,2H4G,2H4K,2HB1,2HNP,2HNQ,2QBP,2QBQ,2QBR,2QBS,2VEU,2VEV,2VEW,2VEX,2VEY,2ZMM,2ZN7,3A5J,3CWE,3D9C,3EAX,3EB1,3EU0,3I7Z,3I80,3SME,4BJO,4I8N,4QBW,4Y14

> <UniProt (SwissProt) Recommended Name of Target Chain>
Tyrosine-protein phosphatase non-receptor type 1

> <UniProt (SwissProt) Entry Name of Target Chain>
PTN1_HUMAN

> <UniProt (SwissProt) Primary ID of Target Chain>
P18031

> <UniProt (SwissProt) Secondary ID(s) of Target Chain>
Q5TGD8,Q9BQV9,Q9NQQ4

$$$$
